
     RDKit          3D

 26 27  0  0  0  0  0  0  0  0999 V2000
    3.5566   -0.2402   -0.2088 C   0  0  0  0  0  0  0  0  0  0  0  0
    2.0967   -0.1193   -0.2762 N   0  0  0  0  0  0  0  0  0  0  0  0
    1.1788   -1.1316   -0.6784 C   0  0  0  0  0  0  0  0  0  0  0  0
    1.4672   -2.3236   -0.8354 O   0  0  0  0  0  0  0  0  0  0  0  0
   -0.0825   -0.4745   -0.8470 C   0  0  1  0  0  0  0  0  0  0  0  0
   -1.3454   -1.1137   -0.4894 C   0  0  1  0  0  0  0  0  0  0  0  0
   -1.2224   -2.0623    0.5867 N   0  0  0  0  0  0  0  0  0  0  0  0
   -2.2054    0.0959   -0.0692 C   0  0  0  0  0  0  0  0  0  0  0  0
   -1.2155    1.2746    0.0193 C   0  0  1  0  0  0  0  0  0  0  0  0
   -1.5608    2.2274    0.9771 N   0  0  0  0  0  0  0  0  0  0  0  0
    0.0060    0.5301    0.3387 C   0  0  2  0  0  0  0  0  0  0  0  0
    1.3160    1.0657    0.0558 C   0  0  0  0  0  0  0  0  0  0  0  0
    1.7371    2.2291    0.0726 O   0  0  0  0  0  0  0  0  0  0  0  0
    3.7916   -1.2418    0.2353 H   0  0  0  0  0  0  0  0  0  0  0  0
    3.9981    0.5334    0.4251 H   0  0  0  0  0  0  0  0  0  0  0  0
    3.9988   -0.1346   -1.2170 H   0  0  0  0  0  0  0  0  0  0  0  0
   -0.1926    0.1366   -1.7663 H   0  0  0  0  0  0  0  0  0  0  0  0
   -1.8228   -1.6257   -1.3478 H   0  0  0  0  0  0  0  0  0  0  0  0
   -1.8277   -2.9112    0.4301 H   0  0  0  0  0  0  0  0  0  0  0  0
   -1.4676   -1.6852    1.5153 H   0  0  0  0  0  0  0  0  0  0  0  0
   -2.9700    0.2627   -0.8272 H   0  0  0  0  0  0  0  0  0  0  0  0
   -2.6163   -0.0719    0.9597 H   0  0  0  0  0  0  0  0  0  0  0  0
   -1.1420    1.6953   -1.0065 H   0  0  0  0  0  0  0  0  0  0  0  0
   -2.3408    2.8448    0.8156 H   0  0  0  0  0  0  0  0  0  0  0  0
   -1.0557    2.2710    1.8485 H   0  0  0  0  0  0  0  0  0  0  0  0
   -0.0794   -0.0311    1.2893 H   0  0  0  0  0  0  0  0  0  0  0  0
  1  2  1  0
  2  3  1  0
  3  4  2  0
  3  5  1  0
  5  6  1  0
  6  7  1  0
  6  8  1  0
  8  9  1  0
  9 10  1  0
  9 11  1  0
 11 12  1  0
 12 13  2  0
 12  2  1  0
 11  5  1  0
  1 14  1  0
  1 15  1  0
  1 16  1  0
  5 17  1  6
  6 18  1  6
  7 19  1  0
  7 20  1  0
  8 21  1  0
  8 22  1  0
  9 23  1  6
 10 24  1  0
 10 25  1  0
 11 26  1  1
M  END
$$$$

     RDKit          3D

 26 27  0  0  0  0  0  0  0  0999 V2000
    3.5018   -0.3875    0.5627 C   0  0  0  0  0  0  0  0  0  0  0  0
    2.0804   -0.2653    0.2602 N   0  0  0  0  0  0  0  0  0  0  0  0
    1.1208   -1.3354    0.0556 C   0  0  0  0  0  0  0  0  0  0  0  0
    1.3628   -2.5111    0.4244 O   0  0  0  0  0  0  0  0  0  0  0  0
    0.0160   -0.6920   -0.5914 C   0  0  1  0  0  0  0  0  0  0  0  0
   -1.3519   -1.1247   -0.4406 C   0  0  1  0  0  0  0  0  0  0  0  0
   -1.6929   -1.7916    0.7693 N   0  0  0  0  0  0  0  0  0  0  0  0
   -2.1290    0.1934   -0.6188 C   0  0  0  0  0  0  0  0  0  0  0  0
   -1.0642    1.3044   -0.5312 C   0  0  1  0  0  0  0  0  0  0  0  0
   -1.6266    2.4720    0.1029 N   0  0  0  0  0  0  0  0  0  0  0  0
   -0.0253    0.6173    0.2383 C   0  0  2  0  0  0  0  0  0  0  0  0
    1.3611    0.9862    0.1073 C   0  0  0  0  0  0  0  0  0  0  0  0
    1.8794    2.1023   -0.0915 O   0  0  0  0  0  0  0  0  0  0  0  0
    3.9745   -1.1819   -0.0713 H   0  0  0  0  0  0  0  0  0  0  0  0
    3.6959   -0.6586    1.6011 H   0  0  0  0  0  0  0  0  0  0  0  0
    3.9956    0.5593    0.2560 H   0  0  0  0  0  0  0  0  0  0  0  0
    0.2641   -0.4380   -1.6351 H   0  0  0  0  0  0  0  0  0  0  0  0
   -1.6658   -1.7720   -1.2981 H   0  0  0  0  0  0  0  0  0  0  0  0
   -2.6838   -1.5235    1.0322 H   0  0  0  0  0  0  0  0  0  0  0  0
   -1.7525   -2.8381    0.5923 H   0  0  0  0  0  0  0  0  0  0  0  0
   -2.7935    0.2818    0.2505 H   0  0  0  0  0  0  0  0  0  0  0  0
   -2.6145    0.2521   -1.5916 H   0  0  0  0  0  0  0  0  0  0  0  0
   -0.7184    1.5902   -1.5342 H   0  0  0  0  0  0  0  0  0  0  0  0
   -1.5487    2.4250    1.1456 H   0  0  0  0  0  0  0  0  0  0  0  0
   -1.2214    3.3711   -0.2531 H   0  0  0  0  0  0  0  0  0  0  0  0
   -0.3640    0.3645    1.2585 H   0  0  0  0  0  0  0  0  0  0  0  0
  1  2  1  0
  2  3  1  0
  3  4  2  0
  3  5  1  0
  5  6  1  0
  6  7  1  0
  6  8  1  0
  8  9  1  0
  9 10  1  0
  9 11  1  0
 11 12  1  0
 12 13  2  0
 12  2  1  0
 11  5  1  0
  1 14  1  0
  1 15  1  0
  1 16  1  0
  5 17  1  6
  6 18  1  6
  7 19  1  0
  7 20  1  0
  8 21  1  0
  8 22  1  0
  9 23  1  6
 10 24  1  0
 10 25  1  0
 11 26  1  1
M  END
$$$$

     RDKit          3D

 26 27  0  0  0  0  0  0  0  0999 V2000
    3.6176   -0.3474   -0.3426 C   0  0  0  0  0  0  0  0  0  0  0  0
    2.1904   -0.1410   -0.1723 N   0  0  0  0  0  0  0  0  0  0  0  0
    1.4184    1.0764   -0.3486 C   0  0  0  0  0  0  0  0  0  0  0  0
    1.8786    2.0498   -0.9933 O   0  0  0  0  0  0  0  0  0  0  0  0
    0.1935    0.8085    0.3423 C   0  0  1  0  0  0  0  0  0  0  0  0
   -1.0711    1.4011    0.0431 C   0  0  1  0  0  0  0  0  0  0  0  0
   -1.3350    1.8234   -1.2893 N   0  0  0  0  0  0  0  0  0  0  0  0
   -2.0627    0.3093    0.4942 C   0  0  0  0  0  0  0  0  0  0  0  0
   -1.1967   -0.9439    0.7320 C   0  0  1  0  0  0  0  0  0  0  0  0
   -1.9922   -2.0813    0.3229 N   0  0  0  0  0  0  0  0  0  0  0  0
   -0.0391   -0.6526   -0.1222 C   0  0  2  0  0  0  0  0  0  0  0  0
    1.2757   -1.1738    0.2197 C   0  0  0  0  0  0  0  0  0  0  0  0
    1.5757   -2.2828    0.7448 O   0  0  0  0  0  0  0  0  0  0  0  0
    4.0638   -0.7281    0.6235 H   0  0  0  0  0  0  0  0  0  0  0  0
    3.8365   -1.1462   -1.0874 H   0  0  0  0  0  0  0  0  0  0  0  0
    4.1508    0.5714   -0.5783 H   0  0  0  0  0  0  0  0  0  0  0  0
    0.3733    0.7353    1.4275 H   0  0  0  0  0  0  0  0  0  0  0  0
   -1.2746    2.2800    0.7243 H   0  0  0  0  0  0  0  0  0  0  0  0
   -2.1062    2.5438   -1.2636 H   0  0  0  0  0  0  0  0  0  0  0  0
   -1.7415    1.0408   -1.8827 H   0  0  0  0  0  0  0  0  0  0  0  0
   -2.5191    0.5507    1.4589 H   0  0  0  0  0  0  0  0  0  0  0  0
   -2.8220    0.1160   -0.2655 H   0  0  0  0  0  0  0  0  0  0  0  0
   -0.8955   -1.0383    1.7726 H   0  0  0  0  0  0  0  0  0  0  0  0
   -2.6505   -2.2919    1.1246 H   0  0  0  0  0  0  0  0  0  0  0  0
   -2.6190   -1.8303   -0.4756 H   0  0  0  0  0  0  0  0  0  0  0  0
   -0.2491   -0.6491   -1.2091 H   0  0  0  0  0  0  0  0  0  0  0  0
  1  2  1  0
  2  3  1  0
  3  4  2  0
  3  5  1  0
  5  6  1  0
  6  7  1  0
  6  8  1  0
  8  9  1  0
  9 10  1  0
  9 11  1  0
 11 12  1  0
 12 13  2  0
 12  2  1  0
 11  5  1  0
  1 14  1  0
  1 15  1  0
  1 16  1  0
  5 17  1  1
  6 18  1  1
  7 19  1  0
  7 20  1  0
  8 21  1  0
  8 22  1  0
  9 23  1  1
 10 24  1  0
 10 25  1  0
 11 26  1  6
M  END
$$$$

     RDKit          3D

 26 27  0  0  0  0  0  0  0  0999 V2000
    3.5052   -0.1276    0.5168 C   0  0  0  0  0  0  0  0  0  0  0  0
    2.0437   -0.0518    0.3883 N   0  0  0  0  0  0  0  0  0  0  0  0
    1.2340    1.1237    0.5023 C   0  0  0  0  0  0  0  0  0  0  0  0
    1.6391    2.3096    0.4253 O   0  0  0  0  0  0  0  0  0  0  0  0
   -0.1034    0.6171    0.7180 C   0  0  1  0  0  0  0  0  0  0  0  0
   -1.2757    1.3286    0.2234 C   0  0  1  0  0  0  0  0  0  0  0  0
   -0.9579    2.0863   -0.9520 N   0  0  0  0  0  0  0  0  0  0  0  0
   -2.2418    0.1701   -0.0945 C   0  0  0  0  0  0  0  0  0  0  0  0
   -1.3767   -1.1039   -0.0066 C   0  0  1  0  0  0  0  0  0  0  0  0
   -1.8599   -2.1271   -0.8753 N   0  0  0  0  0  0  0  0  0  0  0  0
   -0.0668   -0.5334   -0.3267 C   0  0  2  0  0  0  0  0  0  0  0  0
    1.1526   -1.1680    0.1199 C   0  0  0  0  0  0  0  0  0  0  0  0
    1.5104   -2.3459    0.2873 O   0  0  0  0  0  0  0  0  0  0  0  0
    3.8144   -1.1309    0.8641 H   0  0  0  0  0  0  0  0  0  0  0  0
    3.8701    0.6408    1.2216 H   0  0  0  0  0  0  0  0  0  0  0  0
    3.9403    0.1037   -0.4932 H   0  0  0  0  0  0  0  0  0  0  0  0
   -0.2403    0.1233    1.7087 H   0  0  0  0  0  0  0  0  0  0  0  0
   -1.7665    1.9435    0.9822 H   0  0  0  0  0  0  0  0  0  0  0  0
   -1.1038    1.5887   -1.8394 H   0  0  0  0  0  0  0  0  0  0  0  0
   -1.2398    3.0706   -0.9334 H   0  0  0  0  0  0  0  0  0  0  0  0
   -2.6089    0.3125   -1.1382 H   0  0  0  0  0  0  0  0  0  0  0  0
   -3.0810    0.1388    0.6014 H   0  0  0  0  0  0  0  0  0  0  0  0
   -1.4013   -1.3917    1.0711 H   0  0  0  0  0  0  0  0  0  0  0  0
   -2.3183   -2.8884   -0.2913 H   0  0  0  0  0  0  0  0  0  0  0  0
   -1.0590   -2.6347   -1.3566 H   0  0  0  0  0  0  0  0  0  0  0  0
   -0.0088   -0.0540   -1.3233 H   0  0  0  0  0  0  0  0  0  0  0  0
  1  2  1  0
  2  3  1  0
  3  4  2  0
  3  5  1  0
  5  6  1  0
  6  7  1  0
  6  8  1  0
  8  9  1  0
  9 10  1  0
  9 11  1  0
 11 12  1  0
 12 13  2  0
 12  2  1  0
 11  5  1  0
  1 14  1  0
  1 15  1  0
  1 16  1  0
  5 17  1  1
  6 18  1  1
  7 19  1  0
  7 20  1  0
  8 21  1  0
  8 22  1  0
  9 23  1  1
 10 24  1  0
 10 25  1  0
 11 26  1  6
M  END
$$$$

     RDKit          3D

 26 27  0  0  0  0  0  0  0  0999 V2000
    3.5894    0.2160    0.1033 C   0  0  0  0  0  0  0  0  0  0  0  0
    2.1278    0.1190   -0.0235 N   0  0  0  0  0  0  0  0  0  0  0  0
    1.3112   -0.8911    0.6318 C   0  0  0  0  0  0  0  0  0  0  0  0
    1.7188   -1.5571    1.6098 O   0  0  0  0  0  0  0  0  0  0  0  0
    0.0737   -0.8575   -0.1197 C   0  0  1  0  0  0  0  0  0  0  0  0
   -1.2072   -1.1675    0.4990 C   0  0  1  0  0  0  0  0  0  0  0  0
   -1.2223   -1.2089    1.9280 N   0  0  0  0  0  0  0  0  0  0  0  0
   -2.1503   -0.1155   -0.0642 C   0  0  0  0  0  0  0  0  0  0  0  0
   -1.2733    0.7179   -1.0239 C   0  0  1  0  0  0  0  0  0  0  0  0
   -1.8550    2.0084   -1.2695 N   0  0  0  0  0  0  0  0  0  0  0  0
   -0.0540    0.6887   -0.2346 C   0  0  2  0  0  0  0  0  0  0  0  0
    1.2434    0.9538   -0.7781 C   0  0  0  0  0  0  0  0  0  0  0  0
    1.5896    1.7174   -1.6907 O   0  0  0  0  0  0  0  0  0  0  0  0
    4.0711   -0.7008   -0.2307 H   0  0  0  0  0  0  0  0  0  0  0  0
    3.9233    1.0390   -0.5282 H   0  0  0  0  0  0  0  0  0  0  0  0
    3.8603    0.4383    1.1603 H   0  0  0  0  0  0  0  0  0  0  0  0
    0.2451   -1.2907   -1.1242 H   0  0  0  0  0  0  0  0  0  0  0  0
   -1.5883   -2.1485    0.0871 H   0  0  0  0  0  0  0  0  0  0  0  0
   -2.1710   -1.5389    2.2352 H   0  0  0  0  0  0  0  0  0  0  0  0
   -0.5077   -1.9082    2.2286 H   0  0  0  0  0  0  0  0  0  0  0  0
   -2.4020    0.5629    0.7839 H   0  0  0  0  0  0  0  0  0  0  0  0
   -3.0168   -0.5285   -0.5666 H   0  0  0  0  0  0  0  0  0  0  0  0
   -1.2029    0.1258   -1.9486 H   0  0  0  0  0  0  0  0  0  0  0  0
   -2.5778    1.8684   -2.0351 H   0  0  0  0  0  0  0  0  0  0  0  0
   -2.3045    2.3891   -0.4234 H   0  0  0  0  0  0  0  0  0  0  0  0
   -0.2206    1.0686    0.7939 H   0  0  0  0  0  0  0  0  0  0  0  0
  1  2  1  0
  2  3  1  0
  3  4  2  0
  3  5  1  0
  5  6  1  0
  6  7  1  0
  6  8  1  0
  8  9  1  0
  9 10  1  0
  9 11  1  0
 11 12  1  0
 12 13  2  0
 12  2  1  0
 11  5  1  0
  1 14  1  0
  1 15  1  0
  1 16  1  0
  5 17  1  6
  6 18  1  6
  7 19  1  0
  7 20  1  0
  8 21  1  0
  8 22  1  0
  9 23  1  6
 10 24  1  0
 10 25  1  0
 11 26  1  1
M  END
$$$$

     RDKit          3D

 26 27  0  0  0  0  0  0  0  0999 V2000
    3.4891   -0.6483    0.2115 C   0  0  0  0  0  0  0  0  0  0  0  0
    2.0601   -0.3383    0.2059 N   0  0  0  0  0  0  0  0  0  0  0  0
    1.4266    0.9535    0.3113 C   0  0  0  0  0  0  0  0  0  0  0  0
    2.0732    2.0119    0.0960 O   0  0  0  0  0  0  0  0  0  0  0  0
    0.0839    0.6448    0.6728 C   0  0  1  0  0  0  0  0  0  0  0  0
   -1.0673    1.4479    0.4069 C   0  0  1  0  0  0  0  0  0  0  0  0
   -1.2347    2.0533   -0.8522 N   0  0  0  0  0  0  0  0  0  0  0  0
   -2.1477    0.3616    0.5894 C   0  0  0  0  0  0  0  0  0  0  0  0
   -1.4963   -0.9428    0.1231 C   0  0  1  0  0  0  0  0  0  0  0  0
   -2.2610   -1.3433   -1.0699 N   0  0  0  0  0  0  0  0  0  0  0  0
   -0.1579   -0.5409   -0.2952 C   0  0  2  0  0  0  0  0  0  0  0  0
    1.0039   -1.3306    0.0871 C   0  0  0  0  0  0  0  0  0  0  0  0
    1.1703   -2.5614    0.2914 O   0  0  0  0  0  0  0  0  0  0  0  0
    3.7903   -1.1161    1.1893 H   0  0  0  0  0  0  0  0  0  0  0  0
    3.7601   -1.3730   -0.5640 H   0  0  0  0  0  0  0  0  0  0  0  0
    4.0515    0.2792    0.0998 H   0  0  0  0  0  0  0  0  0  0  0  0
    0.0417    0.1888    1.6784 H   0  0  0  0  0  0  0  0  0  0  0  0
   -1.2398    2.2061    1.2006 H   0  0  0  0  0  0  0  0  0  0  0  0
   -0.9259    3.0184   -0.9669 H   0  0  0  0  0  0  0  0  0  0  0  0
   -1.2385    1.4527   -1.6726 H   0  0  0  0  0  0  0  0  0  0  0  0
   -3.0629    0.5979    0.0678 H   0  0  0  0  0  0  0  0  0  0  0  0
   -2.2504    0.2534    1.6953 H   0  0  0  0  0  0  0  0  0  0  0  0
   -1.5717   -1.7391    0.8618 H   0  0  0  0  0  0  0  0  0  0  0  0
   -1.8013   -0.9671   -1.9346 H   0  0  0  0  0  0  0  0  0  0  0  0
   -2.4433   -2.3517   -1.0907 H   0  0  0  0  0  0  0  0  0  0  0  0
   -0.0519   -0.2168   -1.3422 H   0  0  0  0  0  0  0  0  0  0  0  0
  1  2  1  0
  2  3  1  0
  3  4  2  0
  3  5  1  0
  5  6  1  0
  6  7  1  0
  6  8  1  0
  8  9  1  0
  9 10  1  0
  9 11  1  0
 11 12  1  0
 12 13  2  0
 12  2  1  0
 11  5  1  0
  1 14  1  0
  1 15  1  0
  1 16  1  0
  5 17  1  1
  6 18  1  1
  7 19  1  0
  7 20  1  0
  8 21  1  0
  8 22  1  0
  9 23  1  1
 10 24  1  0
 10 25  1  0
 11 26  1  6
M  END
$$$$

     RDKit          3D

 26 27  0  0  0  0  0  0  0  0999 V2000
    3.4844    0.3043   -0.2751 C   0  0  0  0  0  0  0  0  0  0  0  0
    2.0250    0.1383   -0.2399 N   0  0  0  0  0  0  0  0  0  0  0  0
    1.2851   -1.1063   -0.1726 C   0  0  0  0  0  0  0  0  0  0  0  0
    1.8548   -2.1760    0.1607 O   0  0  0  0  0  0  0  0  0  0  0  0
   -0.0434   -0.7188   -0.5496 C   0  0  1  0  0  0  0  0  0  0  0  0
   -1.2341   -1.3919   -0.1378 C   0  0  1  0  0  0  0  0  0  0  0  0
   -1.1777   -2.2144    1.0403 N   0  0  0  0  0  0  0  0  0  0  0  0
   -2.2540   -0.2504    0.0213 C   0  0  0  0  0  0  0  0  0  0  0  0
   -1.4492    1.0435   -0.2204 C   0  0  1  0  0  0  0  0  0  0  0  0
   -1.9768    2.1162    0.5776 N   0  0  0  0  0  0  0  0  0  0  0  0
   -0.1377    0.6059    0.2491 C   0  0  2  0  0  0  0  0  0  0  0  0
    1.0757    1.2155   -0.2683 C   0  0  0  0  0  0  0  0  0  0  0  0
    1.3040    2.3960   -0.6626 O   0  0  0  0  0  0  0  0  0  0  0  0
    3.6581    1.0518   -1.0997 H   0  0  0  0  0  0  0  0  0  0  0  0
    3.8468    0.6728    0.7032 H   0  0  0  0  0  0  0  0  0  0  0  0
    3.9743   -0.6338   -0.5279 H   0  0  0  0  0  0  0  0  0  0  0  0
   -0.0695   -0.4251   -1.6108 H   0  0  0  0  0  0  0  0  0  0  0  0
   -1.6391   -2.0338   -0.9584 H   0  0  0  0  0  0  0  0  0  0  0  0
   -0.5801   -1.8600    1.7928 H   0  0  0  0  0  0  0  0  0  0  0  0
   -0.9832   -3.2171    0.7727 H   0  0  0  0  0  0  0  0  0  0  0  0
   -2.5335   -0.2458    1.0882 H   0  0  0  0  0  0  0  0  0  0  0  0
   -3.0904   -0.3372   -0.6656 H   0  0  0  0  0  0  0  0  0  0  0  0
   -1.4576    1.2600   -1.2985 H   0  0  0  0  0  0  0  0  0  0  0  0
   -2.5340    2.7308   -0.0673 H   0  0  0  0  0  0  0  0  0  0  0  0
   -1.2334    2.6765    1.0174 H   0  0  0  0  0  0  0  0  0  0  0  0
   -0.1144    0.3992    1.3311 H   0  0  0  0  0  0  0  0  0  0  0  0
  1  2  1  0
  2  3  1  0
  3  4  2  0
  3  5  1  0
  5  6  1  0
  6  7  1  0
  6  8  1  0
  8  9  1  0
  9 10  1  0
  9 11  1  0
 11 12  1  0
 12 13  2  0
 12  2  1  0
 11  5  1  0
  1 14  1  0
  1 15  1  0
  1 16  1  0
  5 17  1  6
  6 18  1  6
  7 19  1  0
  7 20  1  0
  8 21  1  0
  8 22  1  0
  9 23  1  6
 10 24  1  0
 10 25  1  0
 11 26  1  1
M  END
$$$$

     RDKit          3D

 26 27  0  0  0  0  0  0  0  0999 V2000
    3.5211   -0.4234   -0.3301 C   0  0  0  0  0  0  0  0  0  0  0  0
    2.0726   -0.3254   -0.1754 N   0  0  0  0  0  0  0  0  0  0  0  0
    1.3101   -0.3807    1.0595 C   0  0  0  0  0  0  0  0  0  0  0  0
    1.7917   -0.2234    2.2079 O   0  0  0  0  0  0  0  0  0  0  0  0
   -0.0271   -0.6431    0.6186 C   0  0  1  0  0  0  0  0  0  0  0  0
   -1.2017   -0.2203    1.3341 C   0  0  1  0  0  0  0  0  0  0  0  0
   -1.0729    0.9113    2.2024 N   0  0  0  0  0  0  0  0  0  0  0  0
   -2.2136    0.0414    0.2033 C   0  0  0  0  0  0  0  0  0  0  0  0
   -1.3958   -0.0560   -1.0998 C   0  0  1  0  0  0  0  0  0  0  0  0
   -1.9243    0.8161   -2.1113 N   0  0  0  0  0  0  0  0  0  0  0  0
   -0.0728    0.3175   -0.5974 C   0  0  2  0  0  0  0  0  0  0  0  0
    1.1250   -0.1512   -1.2616 C   0  0  0  0  0  0  0  0  0  0  0  0
    1.3592   -0.3747   -2.4725 O   0  0  0  0  0  0  0  0  0  0  0  0
    3.7289   -0.6755   -1.3770 H   0  0  0  0  0  0  0  0  0  0  0  0
    3.9667    0.5860   -0.0934 H   0  0  0  0  0  0  0  0  0  0  0  0
    3.9641   -1.1347    0.3651 H   0  0  0  0  0  0  0  0  0  0  0  0
   -0.1201   -1.6736    0.2417 H   0  0  0  0  0  0  0  0  0  0  0  0
   -1.6315   -1.0618    1.9352 H   0  0  0  0  0  0  0  0  0  0  0  0
   -0.8564    0.5607    3.1635 H   0  0  0  0  0  0  0  0  0  0  0  0
   -0.3984    1.6226    1.8713 H   0  0  0  0  0  0  0  0  0  0  0  0
   -3.0395   -0.6657    0.2196 H   0  0  0  0  0  0  0  0  0  0  0  0
   -2.5145    1.1073    0.2799 H   0  0  0  0  0  0  0  0  0  0  0  0
   -1.4098   -1.1108   -1.4150 H   0  0  0  0  0  0  0  0  0  0  0  0
   -2.4423    0.2173   -2.8000 H   0  0  0  0  0  0  0  0  0  0  0  0
   -2.5175    1.5813   -1.7264 H   0  0  0  0  0  0  0  0  0  0  0  0
   -0.0010    1.3587   -0.2423 H   0  0  0  0  0  0  0  0  0  0  0  0
  1  2  1  0
  2  3  1  0
  3  4  2  0
  3  5  1  0
  5  6  1  0
  6  7  1  0
  6  8  1  0
  8  9  1  0
  9 10  1  0
  9 11  1  0
 11 12  1  0
 12 13  2  0
 12  2  1  0
 11  5  1  0
  1 14  1  0
  1 15  1  0
  1 16  1  0
  5 17  1  6
  6 18  1  1
  7 19  1  0
  7 20  1  0
  8 21  1  0
  8 22  1  0
  9 23  1  6
 10 24  1  0
 10 25  1  0
 11 26  1  1
M  END
$$$$
