
     RDKit          3D

 22 22  0  0  0  0  0  0  0  0999 V2000
    1.9538   -1.0973   -0.1122 C   0  0  0  0  0  0  0  0  0  0  0  0
    1.7367    0.3711   -0.0523 C   0  0  2  0  0  0  0  0  0  0  0  0
    1.7149    0.8960    1.3031 N   0  0  0  0  0  0  0  0  0  0  0  0
    0.5087    0.8566   -0.7507 C   0  0  0  0  0  0  0  0  0  0  0  0
   -0.7217    0.3479   -0.2898 N   0  0  0  0  0  0  0  0  0  0  0  0
   -1.3776   -0.8472   -0.7765 C   0  0  0  0  0  0  0  0  0  0  0  0
   -2.7823   -0.7408   -0.3480 C   0  0  0  0  0  0  0  0  0  0  0  0
   -3.7670   -1.3808   -0.8193 O   0  0  0  0  0  0  0  0  0  0  0  0
   -2.8326    0.2151    0.6954 N   0  0  0  0  0  0  0  0  0  0  0  0
   -1.5583    0.8693    0.7109 C   0  0  0  0  0  0  0  0  0  0  0  0
   -1.2557    1.7679    1.5048 O   0  0  0  0  0  0  0  0  0  0  0  0
    1.7524   -1.6232    0.8604 H   0  0  0  0  0  0  0  0  0  0  0  0
    1.3743   -1.5234   -0.9491 H   0  0  0  0  0  0  0  0  0  0  0  0
    3.0319   -1.3543   -0.3332 H   0  0  0  0  0  0  0  0  0  0  0  0
    2.6022    0.8595   -0.5580 H   0  0  0  0  0  0  0  0  0  0  0  0
    2.1628    1.8370    1.3772 H   0  0  0  0  0  0  0  0  0  0  0  0
    2.1994    0.2614    1.9766 H   0  0  0  0  0  0  0  0  0  0  0  0
    0.6249    0.5780   -1.8397 H   0  0  0  0  0  0  0  0  0  0  0  0
    0.5628    1.9810   -0.7570 H   0  0  0  0  0  0  0  0  0  0  0  0
   -1.3541   -0.9363   -1.8736 H   0  0  0  0  0  0  0  0  0  0  0  0
   -0.9269   -1.7448   -0.3042 H   0  0  0  0  0  0  0  0  0  0  0  0
   -3.6486    0.4072    1.3352 H   0  0  0  0  0  0  0  0  0  0  0  0
  1  2  1  0
  2  3  1  0
  2  4  1  0
  4  5  1  0
  5  6  1  0
  6  7  1  0
  7  8  2  0
  7  9  1  0
  9 10  1  0
 10 11  2  0
 10  5  1  0
  1 12  1  0
  1 13  1  0
  1 14  1  0
  2 15  1  6
  3 16  1  0
  3 17  1  0
  4 18  1  0
  4 19  1  0
  6 20  1  0
  6 21  1  0
  9 22  1  0
M  END
$$$$

     RDKit          3D

 22 22  0  0  0  0  0  0  0  0999 V2000
    2.8086   -0.5017   -0.4888 C   0  0  0  0  0  0  0  0  0  0  0  0
    1.5713    0.1869    0.0608 C   0  0  2  0  0  0  0  0  0  0  0  0
    1.5841    0.0055    1.4900 N   0  0  0  0  0  0  0  0  0  0  0  0
    0.3959   -0.4407   -0.6167 C   0  0  0  0  0  0  0  0  0  0  0  0
   -0.8716    0.0685   -0.2372 N   0  0  0  0  0  0  0  0  0  0  0  0
   -1.6452   -0.4947    0.8778 C   0  0  0  0  0  0  0  0  0  0  0  0
   -3.0442   -0.1726    0.5452 C   0  0  0  0  0  0  0  0  0  0  0  0
   -4.0697   -0.8098    0.9189 O   0  0  0  0  0  0  0  0  0  0  0  0
   -2.9915    1.0013   -0.2809 N   0  0  0  0  0  0  0  0  0  0  0  0
   -1.6684    1.1207   -0.7385 C   0  0  0  0  0  0  0  0  0  0  0  0
   -1.2288    2.0248   -1.4879 O   0  0  0  0  0  0  0  0  0  0  0  0
    3.7091    0.1272   -0.3804 H   0  0  0  0  0  0  0  0  0  0  0  0
    2.9265   -1.4379    0.1153 H   0  0  0  0  0  0  0  0  0  0  0  0
    2.6103   -0.8059   -1.5345 H   0  0  0  0  0  0  0  0  0  0  0  0
    1.6258    1.2453   -0.1997 H   0  0  0  0  0  0  0  0  0  0  0  0
    2.4952   -0.3702    1.8506 H   0  0  0  0  0  0  0  0  0  0  0  0
    1.4729    0.9432    1.9648 H   0  0  0  0  0  0  0  0  0  0  0  0
    0.5251   -0.2878   -1.7091 H   0  0  0  0  0  0  0  0  0  0  0  0
    0.4379   -1.5580   -0.4681 H   0  0  0  0  0  0  0  0  0  0  0  0
   -1.3569    0.0978    1.7707 H   0  0  0  0  0  0  0  0  0  0  0  0
   -1.4676   -1.5646    0.9949 H   0  0  0  0  0  0  0  0  0  0  0  0
   -3.8187    1.6227   -0.4758 H   0  0  0  0  0  0  0  0  0  0  0  0
  1  2  1  0
  2  3  1  0
  2  4  1  0
  4  5  1  0
  5  6  1  0
  6  7  1  0
  7  8  2  0
  7  9  1  0
  9 10  1  0
 10 11  2  0
 10  5  1  0
  1 12  1  0
  1 13  1  0
  1 14  1  0
  2 15  1  1
  3 16  1  0
  3 17  1  0
  4 18  1  0
  4 19  1  0
  6 20  1  0
  6 21  1  0
  9 22  1  0
M  END
$$$$

     RDKit          3D

 22 22  0  0  0  0  0  0  0  0999 V2000
   -2.6804   -0.9336    0.4186 C   0  0  0  0  0  0  0  0  0  0  0  0
   -1.2523   -0.4845    0.5002 C   0  0  2  0  0  0  0  0  0  0  0  0
   -1.1670    0.8239    1.1505 N   0  0  0  0  0  0  0  0  0  0  0  0
   -0.6098   -0.3556   -0.8828 C   0  0  0  0  0  0  0  0  0  0  0  0
    0.7509    0.0800   -0.6555 N   0  0  0  0  0  0  0  0  0  0  0  0
    1.8772   -0.7961   -0.4680 C   0  0  0  0  0  0  0  0  0  0  0  0
    2.9759    0.0923    0.0441 C   0  0  0  0  0  0  0  0  0  0  0  0
    4.0628   -0.2747    0.5408 O   0  0  0  0  0  0  0  0  0  0  0  0
    2.5073    1.4196   -0.1608 N   0  0  0  0  0  0  0  0  0  0  0  0
    1.1520    1.4314   -0.5878 C   0  0  0  0  0  0  0  0  0  0  0  0
    0.4663    2.4773   -0.8488 O   0  0  0  0  0  0  0  0  0  0  0  0
   -2.8602   -1.9013    0.9396 H   0  0  0  0  0  0  0  0  0  0  0  0
   -3.0415   -0.9760   -0.6230 H   0  0  0  0  0  0  0  0  0  0  0  0
   -3.3275   -0.1783    0.9346 H   0  0  0  0  0  0  0  0  0  0  0  0
   -0.6971   -1.2321    1.0913 H   0  0  0  0  0  0  0  0  0  0  0  0
   -1.6846    1.5255    0.5813 H   0  0  0  0  0  0  0  0  0  0  0  0
   -1.6203    0.6787    2.1020 H   0  0  0  0  0  0  0  0  0  0  0  0
   -0.6647   -1.3019   -1.4337 H   0  0  0  0  0  0  0  0  0  0  0  0
   -1.1669    0.4386   -1.4246 H   0  0  0  0  0  0  0  0  0  0  0  0
    2.2050   -1.2052   -1.4547 H   0  0  0  0  0  0  0  0  0  0  0  0
    1.6850   -1.6044    0.2512 H   0  0  0  0  0  0  0  0  0  0  0  0
    3.0903    2.2764   -0.0145 H   0  0  0  0  0  0  0  0  0  0  0  0
  1  2  1  0
  2  3  1  0
  2  4  1  0
  4  5  1  0
  5  6  1  0
  6  7  1  0
  7  8  2  0
  7  9  1  0
  9 10  1  0
 10 11  2  0
 10  5  1  0
  1 12  1  0
  1 13  1  0
  1 14  1  0
  2 15  1  1
  3 16  1  0
  3 17  1  0
  4 18  1  0
  4 19  1  0
  6 20  1  0
  6 21  1  0
  9 22  1  0
M  END
$$$$

     RDKit          3D

 22 22  0  0  0  0  0  0  0  0999 V2000
    2.8459   -0.0101   -0.1506 C   0  0  0  0  0  0  0  0  0  0  0  0
    1.3703    0.2603   -0.3876 C   0  0  2  0  0  0  0  0  0  0  0  0
    1.0812    1.5445    0.2230 N   0  0  0  0  0  0  0  0  0  0  0  0
    0.5966   -0.8263    0.3225 C   0  0  0  0  0  0  0  0  0  0  0  0
   -0.8235   -0.6992    0.1845 N   0  0  0  0  0  0  0  0  0  0  0  0
   -1.6545    0.0536    1.1046 C   0  0  0  0  0  0  0  0  0  0  0  0
   -2.6537    0.6447    0.1742 C   0  0  0  0  0  0  0  0  0  0  0  0
   -3.2298    1.7525    0.1761 O   0  0  0  0  0  0  0  0  0  0  0  0
   -2.8437   -0.3847   -0.8042 N   0  0  0  0  0  0  0  0  0  0  0  0
   -1.6989   -1.2298   -0.8012 C   0  0  0  0  0  0  0  0  0  0  0  0
   -1.4470   -2.2470   -1.4954 O   0  0  0  0  0  0  0  0  0  0  0  0
    3.0090   -1.0076    0.3002 H   0  0  0  0  0  0  0  0  0  0  0  0
    3.3009    0.7217    0.5512 H   0  0  0  0  0  0  0  0  0  0  0  0
    3.4274    0.0685   -1.0908 H   0  0  0  0  0  0  0  0  0  0  0  0
    1.1306    0.3173   -1.4586 H   0  0  0  0  0  0  0  0  0  0  0  0
    1.7430    1.7231    0.9872 H   0  0  0  0  0  0  0  0  0  0  0  0
    1.0555    2.3268   -0.4541 H   0  0  0  0  0  0  0  0  0  0  0  0
    0.8434   -0.8001    1.4015 H   0  0  0  0  0  0  0  0  0  0  0  0
    0.8934   -1.8387   -0.0285 H   0  0  0  0  0  0  0  0  0  0  0  0
   -2.1696   -0.6819    1.7451 H   0  0  0  0  0  0  0  0  0  0  0  0
   -1.0866    0.8132    1.6629 H   0  0  0  0  0  0  0  0  0  0  0  0
   -3.6898   -0.5007   -1.4259 H   0  0  0  0  0  0  0  0  0  0  0  0
  1  2  1  0
  2  3  1  0
  2  4  1  0
  4  5  1  0
  5  6  1  0
  6  7  1  0
  7  8  2  0
  7  9  1  0
  9 10  1  0
 10 11  2  0
 10  5  1  0
  1 12  1  0
  1 13  1  0
  1 14  1  0
  2 15  1  6
  3 16  1  0
  3 17  1  0
  4 18  1  0
  4 19  1  0
  6 20  1  0
  6 21  1  0
  9 22  1  0
M  END
$$$$

     RDKit          3D

 22 22  0  0  0  0  0  0  0  0999 V2000
   -2.8481   -0.3675   -0.7683 C   0  0  0  0  0  0  0  0  0  0  0  0
   -1.4839   -0.4907   -0.1387 C   0  0  2  0  0  0  0  0  0  0  0  0
   -1.4376    0.1922    1.1367 N   0  0  0  0  0  0  0  0  0  0  0  0
   -0.4636    0.1300   -1.0978 C   0  0  0  0  0  0  0  0  0  0  0  0
    0.8632    0.0450   -0.5554 N   0  0  0  0  0  0  0  0  0  0  0  0
    1.4939    1.0579    0.2929 C   0  0  0  0  0  0  0  0  0  0  0  0
    2.9177    0.6425    0.3405 C   0  0  0  0  0  0  0  0  0  0  0  0
    3.8396    1.3497    0.7856 O   0  0  0  0  0  0  0  0  0  0  0  0
    3.0545   -0.6677   -0.1940 N   0  0  0  0  0  0  0  0  0  0  0  0
    1.7942   -1.0098   -0.7328 C   0  0  0  0  0  0  0  0  0  0  0  0
    1.5431   -2.1113   -1.2949 O   0  0  0  0  0  0  0  0  0  0  0  0
   -3.4740   -1.2034   -0.4072 H   0  0  0  0  0  0  0  0  0  0  0  0
   -2.7573   -0.4403   -1.8712 H   0  0  0  0  0  0  0  0  0  0  0  0
   -3.2716    0.6319   -0.4642 H   0  0  0  0  0  0  0  0  0  0  0  0
   -1.2611   -1.5650    0.0404 H   0  0  0  0  0  0  0  0  0  0  0  0
   -2.3131    0.0100    1.6763 H   0  0  0  0  0  0  0  0  0  0  0  0
   -1.3298    1.2353    0.9935 H   0  0  0  0  0  0  0  0  0  0  0  0
   -0.7908    1.1792   -1.2602 H   0  0  0  0  0  0  0  0  0  0  0  0
   -0.4807   -0.4285   -2.0474 H   0  0  0  0  0  0  0  0  0  0  0  0
    1.3795    2.0721   -0.1439 H   0  0  0  0  0  0  0  0  0  0  0  0
    1.0840    0.9756    1.3074 H   0  0  0  0  0  0  0  0  0  0  0  0
    3.9419   -1.2372   -0.1712 H   0  0  0  0  0  0  0  0  0  0  0  0
  1  2  1  0
  2  3  1  0
  2  4  1  0
  4  5  1  0
  5  6  1  0
  6  7  1  0
  7  8  2  0
  7  9  1  0
  9 10  1  0
 10 11  2  0
 10  5  1  0
  1 12  1  0
  1 13  1  0
  1 14  1  0
  2 15  1  1
  3 16  1  0
  3 17  1  0
  4 18  1  0
  4 19  1  0
  6 20  1  0
  6 21  1  0
  9 22  1  0
M  END
$$$$

     RDKit          3D

 22 22  0  0  0  0  0  0  0  0999 V2000
   -2.0303   -1.1143   -0.2791 C   0  0  0  0  0  0  0  0  0  0  0  0
   -1.7633    0.2493    0.3058 C   0  0  2  0  0  0  0  0  0  0  0  0
   -1.8156    1.2342   -0.7504 N   0  0  0  0  0  0  0  0  0  0  0  0
   -0.4919    0.3205    1.0873 C   0  0  0  0  0  0  0  0  0  0  0  0
    0.6824    0.0083    0.3163 N   0  0  0  0  0  0  0  0  0  0  0  0
    1.5093    0.9316   -0.4361 C   0  0  0  0  0  0  0  0  0  0  0  0
    2.8533    0.3147   -0.4069 C   0  0  0  0  0  0  0  0  0  0  0  0
    3.9447    0.9390   -0.4432 O   0  0  0  0  0  0  0  0  0  0  0  0
    2.6386   -1.0880   -0.3313 N   0  0  0  0  0  0  0  0  0  0  0  0
    1.2994   -1.2669    0.1149 C   0  0  0  0  0  0  0  0  0  0  0  0
    0.7480   -2.3859    0.3017 O   0  0  0  0  0  0  0  0  0  0  0  0
   -1.3812   -1.3710   -1.1133 H   0  0  0  0  0  0  0  0  0  0  0  0
   -3.0791   -1.1632   -0.6354 H   0  0  0  0  0  0  0  0  0  0  0  0
   -1.9501   -1.9008    0.5125 H   0  0  0  0  0  0  0  0  0  0  0  0
   -2.5982    0.4730    1.0019 H   0  0  0  0  0  0  0  0  0  0  0  0
   -2.6746    1.8200   -0.7147 H   0  0  0  0  0  0  0  0  0  0  0  0
   -0.9652    1.8371   -0.7432 H   0  0  0  0  0  0  0  0  0  0  0  0
   -0.4101    1.3474    1.4999 H   0  0  0  0  0  0  0  0  0  0  0  0
   -0.6025   -0.3462    1.9829 H   0  0  0  0  0  0  0  0  0  0  0  0
    1.5498    1.9350    0.0566 H   0  0  0  0  0  0  0  0  0  0  0  0
    1.1880    1.0405   -1.4778 H   0  0  0  0  0  0  0  0  0  0  0  0
    3.3485   -1.8143   -0.5654 H   0  0  0  0  0  0  0  0  0  0  0  0
  1  2  1  0
  2  3  1  0
  2  4  1  0
  4  5  1  0
  5  6  1  0
  6  7  1  0
  7  8  2  0
  7  9  1  0
  9 10  1  0
 10 11  2  0
 10  5  1  0
  1 12  1  0
  1 13  1  0
  1 14  1  0
  2 15  1  1
  3 16  1  0
  3 17  1  0
  4 18  1  0
  4 19  1  0
  6 20  1  0
  6 21  1  0
  9 22  1  0
M  END
$$$$

     RDKit          3D

 22 22  0  0  0  0  0  0  0  0999 V2000
   -1.7791    1.0800   -0.6600 C   0  0  0  0  0  0  0  0  0  0  0  0
   -1.5751   -0.3742   -0.3918 C   0  0  2  0  0  0  0  0  0  0  0  0
   -2.8234   -0.9472    0.0776 N   0  0  0  0  0  0  0  0  0  0  0  0
   -0.5010   -0.6547    0.6317 C   0  0  0  0  0  0  0  0  0  0  0  0
    0.7864   -0.1451    0.2262 N   0  0  0  0  0  0  0  0  0  0  0  0
    1.7973   -0.8577   -0.5458 C   0  0  0  0  0  0  0  0  0  0  0  0
    3.0732   -0.2335   -0.0731 C   0  0  0  0  0  0  0  0  0  0  0  0
    4.2226   -0.7809   -0.0244 O   0  0  0  0  0  0  0  0  0  0  0  0
    2.7435    1.0958    0.3115 N   0  0  0  0  0  0  0  0  0  0  0  0
    1.3262    1.1480    0.4963 C   0  0  0  0  0  0  0  0  0  0  0  0
    0.6869    2.1778    0.8406 O   0  0  0  0  0  0  0  0  0  0  0  0
   -1.9519    1.6336    0.2921 H   0  0  0  0  0  0  0  0  0  0  0  0
   -0.9828    1.5530   -1.2537 H   0  0  0  0  0  0  0  0  0  0  0  0
   -2.7535    1.1732   -1.2190 H   0  0  0  0  0  0  0  0  0  0  0  0
   -1.3480   -0.8876   -1.3600 H   0  0  0  0  0  0  0  0  0  0  0  0
   -2.9819   -1.9090   -0.3077 H   0  0  0  0  0  0  0  0  0  0  0  0
   -3.6351   -0.3343   -0.0878 H   0  0  0  0  0  0  0  0  0  0  0  0
   -0.8443   -0.2611    1.6067 H   0  0  0  0  0  0  0  0  0  0  0  0
   -0.4507   -1.7628    0.7431 H   0  0  0  0  0  0  0  0  0  0  0  0
    1.8393   -1.9275   -0.3051 H   0  0  0  0  0  0  0  0  0  0  0  0
    1.7025   -0.6516   -1.6371 H   0  0  0  0  0  0  0  0  0  0  0  0
    3.4488    1.8656    0.4258 H   0  0  0  0  0  0  0  0  0  0  0  0
  1  2  1  0
  2  3  1  0
  2  4  1  0
  4  5  1  0
  5  6  1  0
  6  7  1  0
  7  8  2  0
  7  9  1  0
  9 10  1  0
 10 11  2  0
 10  5  1  0
  1 12  1  0
  1 13  1  0
  1 14  1  0
  2 15  1  6
  3 16  1  0
  3 17  1  0
  4 18  1  0
  4 19  1  0
  6 20  1  0
  6 21  1  0
  9 22  1  0
M  END
$$$$

     RDKit          3D

 22 22  0  0  0  0  0  0  0  0999 V2000
   -2.7829    0.1319   -0.6998 C   0  0  0  0  0  0  0  0  0  0  0  0
   -1.3293   -0.2687   -0.5684 C   0  0  2  0  0  0  0  0  0  0  0  0
   -1.2068   -1.4593    0.2650 N   0  0  0  0  0  0  0  0  0  0  0  0
   -0.5898    0.8508    0.1663 C   0  0  0  0  0  0  0  0  0  0  0  0
    0.8031    0.5405    0.3293 N   0  0  0  0  0  0  0  0  0  0  0  0
    1.8516    0.8767   -0.6007 C   0  0  0  0  0  0  0  0  0  0  0  0
    2.8699   -0.1793   -0.3651 C   0  0  0  0  0  0  0  0  0  0  0  0
    3.7328   -0.6353   -1.1766 O   0  0  0  0  0  0  0  0  0  0  0  0
    2.6818   -0.5904    0.9874 N   0  0  0  0  0  0  0  0  0  0  0  0
    1.3977   -0.1411    1.4133 C   0  0  0  0  0  0  0  0  0  0  0  0
    0.9083   -0.3403    2.5775 O   0  0  0  0  0  0  0  0  0  0  0  0
   -3.3351   -0.0218    0.2521 H   0  0  0  0  0  0  0  0  0  0  0  0
   -3.2886   -0.4098   -1.5294 H   0  0  0  0  0  0  0  0  0  0  0  0
   -2.8337    1.2202   -0.9922 H   0  0  0  0  0  0  0  0  0  0  0  0
   -0.8739   -0.4766   -1.5360 H   0  0  0  0  0  0  0  0  0  0  0  0
   -1.5031   -1.2974    1.2439 H   0  0  0  0  0  0  0  0  0  0  0  0
   -1.8066   -2.2188   -0.1522 H   0  0  0  0  0  0  0  0  0  0  0  0
   -0.7556    1.7810   -0.4082 H   0  0  0  0  0  0  0  0  0  0  0  0
   -1.0165    1.0146    1.1680 H   0  0  0  0  0  0  0  0  0  0  0  0
    1.4712    0.8676   -1.6384 H   0  0  0  0  0  0  0  0  0  0  0  0
    2.2333    1.8857   -0.3005 H   0  0  0  0  0  0  0  0  0  0  0  0
    3.3724   -1.1301    1.5648 H   0  0  0  0  0  0  0  0  0  0  0  0
  1  2  1  0
  2  3  1  0
  2  4  1  0
  4  5  1  0
  5  6  1  0
  6  7  1  0
  7  8  2  0
  7  9  1  0
  9 10  1  0
 10 11  2  0
 10  5  1  0
  1 12  1  0
  1 13  1  0
  1 14  1  0
  2 15  1  6
  3 16  1  0
  3 17  1  0
  4 18  1  0
  4 19  1  0
  6 20  1  0
  6 21  1  0
  9 22  1  0
M  END
$$$$
