
     RDKit          3D

 28 29  0  0  0  0  0  0  0  0999 V2000
   -3.2511    0.0725    1.3122 O   0  0  0  0  0  0  0  0  0  0  0  0
   -2.9569    0.4145   -0.0136 C   0  0  0  0  0  0  0  0  0  0  0  0
   -1.4946    0.0509   -0.3216 C   0  0  1  0  0  0  0  0  0  0  0  0
   -0.5819    0.9593    0.3782 C   0  0  0  0  0  0  0  0  0  0  0  0
    0.6410    0.4500    0.8559 N   0  0  0  0  0  0  0  0  0  0  0  0
    1.7791    1.2852    0.7368 C   0  0  0  0  0  0  0  0  0  0  0  0
    2.6605    0.9523   -0.4481 C   0  0  0  0  0  0  0  0  0  0  0  0
    2.8740   -0.4133   -0.5685 O   0  0  0  0  0  0  0  0  0  0  0  0
    1.6552   -1.0476   -0.6957 C   0  0  0  0  0  0  0  0  0  0  0  0
    0.9297   -0.9157    0.6275 C   0  0  2  0  0  0  0  0  0  0  0  0
   -0.2824   -1.7881    0.6738 C   0  0  0  0  0  0  0  0  0  0  0  0
   -1.3443   -1.3341   -0.1300 N   0  0  0  0  0  0  0  0  0  0  0  0
   -3.1892    0.8704    1.8961 H   0  0  0  0  0  0  0  0  0  0  0  0
   -3.1463    1.4864   -0.1542 H   0  0  0  0  0  0  0  0  0  0  0  0
   -3.6481   -0.1416   -0.6816 H   0  0  0  0  0  0  0  0  0  0  0  0
   -1.4069    0.2418   -1.4347 H   0  0  0  0  0  0  0  0  0  0  0  0
   -0.3543    1.8618   -0.2622 H   0  0  0  0  0  0  0  0  0  0  0  0
   -1.1225    1.4002    1.2650 H   0  0  0  0  0  0  0  0  0  0  0  0
    2.4232    1.1155    1.6479 H   0  0  0  0  0  0  0  0  0  0  0  0
    1.5329    2.3560    0.6806 H   0  0  0  0  0  0  0  0  0  0  0  0
    3.6447    1.4376   -0.2749 H   0  0  0  0  0  0  0  0  0  0  0  0
    2.2503    1.3528   -1.3877 H   0  0  0  0  0  0  0  0  0  0  0  0
    1.7794   -2.1253   -0.9352 H   0  0  0  0  0  0  0  0  0  0  0  0
    1.0056   -0.6115   -1.4798 H   0  0  0  0  0  0  0  0  0  0  0  0
    1.6298   -1.2677    1.4133 H   0  0  0  0  0  0  0  0  0  0  0  0
    0.0373   -2.7991    0.2885 H   0  0  0  0  0  0  0  0  0  0  0  0
   -0.5430   -1.9620    1.7476 H   0  0  0  0  0  0  0  0  0  0  0  0
   -1.5210   -1.9012   -0.9649 H   0  0  0  0  0  0  0  0  0  0  0  0
  1  2  1  0
  2  3  1  0
  3  4  1  0
  4  5  1  0
  5  6  1  0
  6  7  1  0
  7  8  1  0
  8  9  1  0
  9 10  1  0
 10 11  1  0
 11 12  1  0
 12  3  1  0
 10  5  1  0
  1 13  1  0
  2 14  1  0
  2 15  1  0
  3 16  1  6
  4 17  1  0
  4 18  1  0
  6 19  1  0
  6 20  1  0
  7 21  1  0
  7 22  1  0
  9 23  1  0
  9 24  1  0
 10 25  1  1
 11 26  1  0
 11 27  1  0
 12 28  1  0
M  END
$$$$

     RDKit          3D

 28 29  0  0  0  0  0  0  0  0999 V2000
    2.5402    0.5169    1.4813 O   0  0  0  0  0  0  0  0  0  0  0  0
    2.9367   -0.1644    0.3443 C   0  0  0  0  0  0  0  0  0  0  0  0
    1.8016   -0.2299   -0.6873 C   0  0  1  0  0  0  0  0  0  0  0  0
    0.7006   -1.1180   -0.2740 C   0  0  0  0  0  0  0  0  0  0  0  0
   -0.3804   -0.5116    0.4324 N   0  0  0  0  0  0  0  0  0  0  0  0
   -1.5784   -1.3141    0.1623 C   0  0  0  0  0  0  0  0  0  0  0  0
   -2.8095   -0.7384    0.7653 C   0  0  0  0  0  0  0  0  0  0  0  0
   -2.7075    0.5726    1.1559 O   0  0  0  0  0  0  0  0  0  0  0  0
   -1.9958    1.3349    0.2340 C   0  0  0  0  0  0  0  0  0  0  0  0
   -0.5822    0.8759    0.1607 C   0  0  2  0  0  0  0  0  0  0  0  0
   -0.0132    1.1304   -1.2355 C   0  0  0  0  0  0  0  0  0  0  0  0
    1.4297    1.1015   -1.0507 N   0  0  0  0  0  0  0  0  0  0  0  0
    3.0964    0.2717    2.2478 H   0  0  0  0  0  0  0  0  0  0  0  0
    3.8254    0.3071   -0.1136 H   0  0  0  0  0  0  0  0  0  0  0  0
    3.1630   -1.2220    0.6139 H   0  0  0  0  0  0  0  0  0  0  0  0
    2.2896   -0.6846   -1.6004 H   0  0  0  0  0  0  0  0  0  0  0  0
    0.3181   -1.6962   -1.1569 H   0  0  0  0  0  0  0  0  0  0  0  0
    1.1301   -1.9127    0.4041 H   0  0  0  0  0  0  0  0  0  0  0  0
   -1.3862   -2.3348    0.5503 H   0  0  0  0  0  0  0  0  0  0  0  0
   -1.6445   -1.3984   -0.9426 H   0  0  0  0  0  0  0  0  0  0  0  0
   -3.1548   -1.3420    1.6310 H   0  0  0  0  0  0  0  0  0  0  0  0
   -3.6247   -0.8017    0.0101 H   0  0  0  0  0  0  0  0  0  0  0  0
   -2.0166    2.3892    0.6377 H   0  0  0  0  0  0  0  0  0  0  0  0
   -2.4492    1.3740   -0.7579 H   0  0  0  0  0  0  0  0  0  0  0  0
    0.0284    1.4729    0.8995 H   0  0  0  0  0  0  0  0  0  0  0  0
   -0.2542    0.2571   -1.8945 H   0  0  0  0  0  0  0  0  0  0  0  0
   -0.3798    2.0524   -1.6797 H   0  0  0  0  0  0  0  0  0  0  0  0
    1.7174    1.8121   -0.3375 H   0  0  0  0  0  0  0  0  0  0  0  0
  1  2  1  0
  2  3  1  0
  3  4  1  0
  4  5  1  0
  5  6  1  0
  6  7  1  0
  7  8  1  0
  8  9  1  0
  9 10  1  0
 10 11  1  0
 11 12  1  0
 12  3  1  0
 10  5  1  0
  1 13  1  0
  2 14  1  0
  2 15  1  0
  3 16  1  6
  4 17  1  0
  4 18  1  0
  6 19  1  0
  6 20  1  0
  7 21  1  0
  7 22  1  0
  9 23  1  0
  9 24  1  0
 10 25  1  1
 11 26  1  0
 11 27  1  0
 12 28  1  0
M  END
$$$$

     RDKit          3D

 28 29  0  0  0  0  0  0  0  0999 V2000
   -3.4172   -1.3197   -0.1237 O   0  0  0  0  0  0  0  0  0  0  0  0
   -2.9630   -0.1575   -0.7603 C   0  0  0  0  0  0  0  0  0  0  0  0
   -1.6084    0.2565   -0.1771 C   0  0  1  0  0  0  0  0  0  0  0  0
   -0.6785   -0.8908   -0.3575 C   0  0  0  0  0  0  0  0  0  0  0  0
    0.6820   -0.5628   -0.5524 N   0  0  0  0  0  0  0  0  0  0  0  0
    1.5078   -1.5147    0.1507 C   0  0  0  0  0  0  0  0  0  0  0  0
    2.7980   -0.9227    0.6430 C   0  0  0  0  0  0  0  0  0  0  0  0
    2.6432    0.1968    1.4224 O   0  0  0  0  0  0  0  0  0  0  0  0
    1.4380    0.8585    1.2297 C   0  0  0  0  0  0  0  0  0  0  0  0
    1.0779    0.7618   -0.2564 C   0  0  2  0  0  0  0  0  0  0  0  0
    0.1422    1.8382   -0.6608 C   0  0  0  0  0  0  0  0  0  0  0  0
   -1.2068    1.4489   -0.8740 N   0  0  0  0  0  0  0  0  0  0  0  0
   -2.8690   -1.4405    0.6872 H   0  0  0  0  0  0  0  0  0  0  0  0
   -2.7518   -0.3750   -1.8450 H   0  0  0  0  0  0  0  0  0  0  0  0
   -3.6737    0.6713   -0.7085 H   0  0  0  0  0  0  0  0  0  0  0  0
   -1.7986    0.5182    0.8709 H   0  0  0  0  0  0  0  0  0  0  0  0
   -0.8134   -1.5765    0.5207 H   0  0  0  0  0  0  0  0  0  0  0  0
   -1.0120   -1.5122   -1.2402 H   0  0  0  0  0  0  0  0  0  0  0  0
    0.9462   -1.9081    1.0326 H   0  0  0  0  0  0  0  0  0  0  0  0
    1.7482   -2.3269   -0.5547 H   0  0  0  0  0  0  0  0  0  0  0  0
    3.2886   -1.7043    1.2754 H   0  0  0  0  0  0  0  0  0  0  0  0
    3.4573   -0.7561   -0.2344 H   0  0  0  0  0  0  0  0  0  0  0  0
    0.6619    0.3264    1.8088 H   0  0  0  0  0  0  0  0  0  0  0  0
    1.5194    1.9114    1.5511 H   0  0  0  0  0  0  0  0  0  0  0  0
    2.0576    0.9511   -0.7901 H   0  0  0  0  0  0  0  0  0  0  0  0
    0.1819    2.6459    0.1239 H   0  0  0  0  0  0  0  0  0  0  0  0
    0.4917    2.3631   -1.5983 H   0  0  0  0  0  0  0  0  0  0  0  0
   -1.8497    2.2199   -0.5829 H   0  0  0  0  0  0  0  0  0  0  0  0
  1  2  1  0
  2  3  1  0
  3  4  1  0
  4  5  1  0
  5  6  1  0
  6  7  1  0
  7  8  1  0
  8  9  1  0
  9 10  1  0
 10 11  1  0
 11 12  1  0
 12  3  1  0
 10  5  1  0
  1 13  1  0
  2 14  1  0
  2 15  1  0
  3 16  1  1
  4 17  1  0
  4 18  1  0
  6 19  1  0
  6 20  1  0
  7 21  1  0
  7 22  1  0
  9 23  1  0
  9 24  1  0
 10 25  1  6
 11 26  1  0
 11 27  1  0
 12 28  1  0
M  END
$$$$

     RDKit          3D

 28 29  0  0  0  0  0  0  0  0999 V2000
    3.9133    1.1145   -0.5296 O   0  0  0  0  0  0  0  0  0  0  0  0
    3.1614   -0.0137   -0.2036 C   0  0  0  0  0  0  0  0  0  0  0  0
    1.6747    0.2663   -0.4659 C   0  0  1  0  0  0  0  0  0  0  0  0
    0.8462   -0.9295   -0.1634 C   0  0  0  0  0  0  0  0  0  0  0  0
   -0.4935   -0.7208    0.1494 N   0  0  0  0  0  0  0  0  0  0  0  0
   -1.4503   -1.6446   -0.3296 C   0  0  0  0  0  0  0  0  0  0  0  0
   -2.7783   -1.4010    0.3328 C   0  0  0  0  0  0  0  0  0  0  0  0
   -3.2138   -0.1039    0.2642 O   0  0  0  0  0  0  0  0  0  0  0  0
   -2.2918    0.8024   -0.1928 C   0  0  0  0  0  0  0  0  0  0  0  0
   -0.9455    0.5547    0.5016 C   0  0  2  0  0  0  0  0  0  0  0  0
   -0.0615    1.7026    0.1725 C   0  0  0  0  0  0  0  0  0  0  0  0
    1.3339    1.3912    0.3838 N   0  0  0  0  0  0  0  0  0  0  0  0
    3.4623    1.9383   -0.1608 H   0  0  0  0  0  0  0  0  0  0  0  0
    3.3132   -0.2669    0.8536 H   0  0  0  0  0  0  0  0  0  0  0  0
    3.5284   -0.8255   -0.8970 H   0  0  0  0  0  0  0  0  0  0  0  0
    1.5563    0.5405   -1.5356 H   0  0  0  0  0  0  0  0  0  0  0  0
    0.9503   -1.6425   -1.0327 H   0  0  0  0  0  0  0  0  0  0  0  0
    1.3461   -1.4733    0.6916 H   0  0  0  0  0  0  0  0  0  0  0  0
   -1.5707   -1.6759   -1.4316 H   0  0  0  0  0  0  0  0  0  0  0  0
   -1.1234   -2.6757   -0.0125 H   0  0  0  0  0  0  0  0  0  0  0  0
   -3.5688   -2.0449   -0.1445 H   0  0  0  0  0  0  0  0  0  0  0  0
   -2.7283   -1.7774    1.3923 H   0  0  0  0  0  0  0  0  0  0  0  0
   -2.6059    1.8262    0.0415 H   0  0  0  0  0  0  0  0  0  0  0  0
   -2.1415    0.6994   -1.2896 H   0  0  0  0  0  0  0  0  0  0  0  0
   -1.1736    0.5684    1.6053 H   0  0  0  0  0  0  0  0  0  0  0  0
   -0.3116    2.5468    0.8536 H   0  0  0  0  0  0  0  0  0  0  0  0
   -0.1869    2.0522   -0.8711 H   0  0  0  0  0  0  0  0  0  0  0  0
    1.5594    1.1921    1.3635 H   0  0  0  0  0  0  0  0  0  0  0  0
  1  2  1  0
  2  3  1  0
  3  4  1  0
  4  5  1  0
  5  6  1  0
  6  7  1  0
  7  8  1  0
  8  9  1  0
  9 10  1  0
 10 11  1  0
 11 12  1  0
 12  3  1  0
 10  5  1  0
  1 13  1  0
  2 14  1  0
  2 15  1  0
  3 16  1  6
  4 17  1  0
  4 18  1  0
  6 19  1  0
  6 20  1  0
  7 21  1  0
  7 22  1  0
  9 23  1  0
  9 24  1  0
 10 25  1  1
 11 26  1  0
 11 27  1  0
 12 28  1  0
M  END
$$$$

     RDKit          3D

 28 29  0  0  0  0  0  0  0  0999 V2000
    3.4402   -0.6512    0.8625 O   0  0  0  0  0  0  0  0  0  0  0  0
    2.9909   -0.7852   -0.4426 C   0  0  0  0  0  0  0  0  0  0  0  0
    1.6241   -0.2207   -0.5649 C   0  0  1  0  0  0  0  0  0  0  0  0
    0.6592   -0.9344    0.3948 C   0  0  0  0  0  0  0  0  0  0  0  0
   -0.6376   -0.4589    0.0372 N   0  0  0  0  0  0  0  0  0  0  0  0
   -1.7264   -1.2690    0.4685 C   0  0  0  0  0  0  0  0  0  0  0  0
   -2.9600   -0.8067   -0.3210 C   0  0  0  0  0  0  0  0  0  0  0  0
   -2.7302    0.4373   -0.9160 O   0  0  0  0  0  0  0  0  0  0  0  0
   -2.1728    1.3505   -0.0200 C   0  0  0  0  0  0  0  0  0  0  0  0
   -0.7573    0.9269    0.3735 C   0  0  2  0  0  0  0  0  0  0  0  0
    0.2695    1.7365   -0.3634 C   0  0  0  0  0  0  0  0  0  0  0  0
    1.5697    1.1692   -0.2274 N   0  0  0  0  0  0  0  0  0  0  0  0
    4.4405   -0.6721    0.8209 H   0  0  0  0  0  0  0  0  0  0  0  0
    3.6526   -0.3551   -1.1961 H   0  0  0  0  0  0  0  0  0  0  0  0
    2.9208   -1.8930   -0.6428 H   0  0  0  0  0  0  0  0  0  0  0  0
    1.2113   -0.3725   -1.5924 H   0  0  0  0  0  0  0  0  0  0  0  0
    0.9301   -0.6252    1.4470 H   0  0  0  0  0  0  0  0  0  0  0  0
    0.7220   -2.0154    0.2812 H   0  0  0  0  0  0  0  0  0  0  0  0
   -1.4938   -2.3247    0.2281 H   0  0  0  0  0  0  0  0  0  0  0  0
   -1.8891   -1.1660    1.5475 H   0  0  0  0  0  0  0  0  0  0  0  0
   -3.8243   -0.7891    0.3527 H   0  0  0  0  0  0  0  0  0  0  0  0
   -3.1236   -1.5350   -1.1643 H   0  0  0  0  0  0  0  0  0  0  0  0
   -2.8185    1.3939    0.8997 H   0  0  0  0  0  0  0  0  0  0  0  0
   -2.1943    2.3437   -0.4867 H   0  0  0  0  0  0  0  0  0  0  0  0
   -0.6612    1.0951    1.4858 H   0  0  0  0  0  0  0  0  0  0  0  0
    0.2955    2.7469    0.1412 H   0  0  0  0  0  0  0  0  0  0  0  0
   -0.0456    1.9303   -1.4071 H   0  0  0  0  0  0  0  0  0  0  0  0
    2.3082    1.7437   -0.6561 H   0  0  0  0  0  0  0  0  0  0  0  0
  1  2  1  0
  2  3  1  0
  3  4  1  0
  4  5  1  0
  5  6  1  0
  6  7  1  0
  7  8  1  0
  8  9  1  0
  9 10  1  0
 10 11  1  0
 11 12  1  0
 12  3  1  0
 10  5  1  0
  1 13  1  0
  2 14  1  0
  2 15  1  0
  3 16  1  6
  4 17  1  0
  4 18  1  0
  6 19  1  0
  6 20  1  0
  7 21  1  0
  7 22  1  0
  9 23  1  0
  9 24  1  0
 10 25  1  1
 11 26  1  0
 11 27  1  0
 12 28  1  0
M  END
$$$$

     RDKit          3D

 28 29  0  0  0  0  0  0  0  0999 V2000
   -4.0290   -0.8057    0.0583 O   0  0  0  0  0  0  0  0  0  0  0  0
   -3.0428    0.1438    0.1204 C   0  0  0  0  0  0  0  0  0  0  0  0
   -1.6711   -0.3933   -0.2729 C   0  0  1  0  0  0  0  0  0  0  0  0
   -0.7209    0.7439   -0.3247 C   0  0  0  0  0  0  0  0  0  0  0  0
    0.5343    0.5341    0.2491 N   0  0  0  0  0  0  0  0  0  0  0  0
    1.3309    1.6189    0.5889 C   0  0  0  0  0  0  0  0  0  0  0  0
    2.7512    1.3822    0.0591 C   0  0  0  0  0  0  0  0  0  0  0  0
    3.1799    0.0979    0.2623 O   0  0  0  0  0  0  0  0  0  0  0  0
    2.3492   -0.8648   -0.2871 C   0  0  0  0  0  0  0  0  0  0  0  0
    1.0170   -0.7567    0.4688 C   0  0  2  0  0  0  0  0  0  0  0  0
    0.0832   -1.8578    0.1568 C   0  0  0  0  0  0  0  0  0  0  0  0
   -1.2520   -1.4659    0.5819 N   0  0  0  0  0  0  0  0  0  0  0  0
   -4.7031   -0.6136    0.7533 H   0  0  0  0  0  0  0  0  0  0  0  0
   -2.9757    0.4931    1.1922 H   0  0  0  0  0  0  0  0  0  0  0  0
   -3.2549    1.0616   -0.4637 H   0  0  0  0  0  0  0  0  0  0  0  0
   -1.8202   -0.8469   -1.2974 H   0  0  0  0  0  0  0  0  0  0  0  0
   -0.5804    1.0316   -1.4087 H   0  0  0  0  0  0  0  0  0  0  0  0
   -1.1728    1.6758    0.1303 H   0  0  0  0  0  0  0  0  0  0  0  0
    0.9491    2.5511    0.1175 H   0  0  0  0  0  0  0  0  0  0  0  0
    1.3848    1.7325    1.7036 H   0  0  0  0  0  0  0  0  0  0  0  0
    2.8507    1.7409   -0.9796 H   0  0  0  0  0  0  0  0  0  0  0  0
    3.3992    2.0528    0.6762 H   0  0  0  0  0  0  0  0  0  0  0  0
    2.1146   -0.5867   -1.3464 H   0  0  0  0  0  0  0  0  0  0  0  0
    2.7895   -1.8521   -0.2221 H   0  0  0  0  0  0  0  0  0  0  0  0
    1.3118   -0.8555    1.5556 H   0  0  0  0  0  0  0  0  0  0  0  0
    0.4091   -2.8065    0.6465 H   0  0  0  0  0  0  0  0  0  0  0  0
    0.0436   -1.9812   -0.9550 H   0  0  0  0  0  0  0  0  0  0  0  0
   -1.2750   -1.1733    1.5829 H   0  0  0  0  0  0  0  0  0  0  0  0
  1  2  1  0
  2  3  1  0
  3  4  1  0
  4  5  1  0
  5  6  1  0
  6  7  1  0
  7  8  1  0
  8  9  1  0
  9 10  1  0
 10 11  1  0
 11 12  1  0
 12  3  1  0
 10  5  1  0
  1 13  1  0
  2 14  1  0
  2 15  1  0
  3 16  1  6
  4 17  1  0
  4 18  1  0
  6 19  1  0
  6 20  1  0
  7 21  1  0
  7 22  1  0
  9 23  1  0
  9 24  1  0
 10 25  1  1
 11 26  1  0
 11 27  1  0
 12 28  1  0
M  END
$$$$

     RDKit          3D

 28 29  0  0  0  0  0  0  0  0999 V2000
    3.6407    0.3256    0.6511 O   0  0  0  0  0  0  0  0  0  0  0  0
    3.0139   -0.1208   -0.5028 C   0  0  0  0  0  0  0  0  0  0  0  0
    1.5181    0.0735   -0.4532 C   0  0  1  0  0  0  0  0  0  0  0  0
    0.9067   -0.6828    0.7237 C   0  0  0  0  0  0  0  0  0  0  0  0
   -0.4845   -0.5809    0.6542 N   0  0  0  0  0  0  0  0  0  0  0  0
   -1.2644   -1.6813    0.3600 C   0  0  0  0  0  0  0  0  0  0  0  0
   -2.5376   -1.3388   -0.3828 C   0  0  0  0  0  0  0  0  0  0  0  0
   -3.1743   -0.3407    0.3508 O   0  0  0  0  0  0  0  0  0  0  0  0
   -2.4705    0.8372    0.3772 C   0  0  0  0  0  0  0  0  0  0  0  0
   -1.0154    0.7139    0.6249 C   0  0  2  0  0  0  0  0  0  0  0  0
   -0.2897    1.5680   -0.4227 C   0  0  0  0  0  0  0  0  0  0  0  0
    1.1372    1.4505   -0.2982 N   0  0  0  0  0  0  0  0  0  0  0  0
    4.5984    0.5058    0.3902 H   0  0  0  0  0  0  0  0  0  0  0  0
    3.1872   -1.2240   -0.5585 H   0  0  0  0  0  0  0  0  0  0  0  0
    3.3945    0.3622   -1.4112 H   0  0  0  0  0  0  0  0  0  0  0  0
    1.0584   -0.3623   -1.3611 H   0  0  0  0  0  0  0  0  0  0  0  0
    1.2855   -1.6970    0.8160 H   0  0  0  0  0  0  0  0  0  0  0  0
    1.2661   -0.1246    1.6376 H   0  0  0  0  0  0  0  0  0  0  0  0
   -1.5407   -2.2263    1.3043 H   0  0  0  0  0  0  0  0  0  0  0  0
   -0.7234   -2.4501   -0.2542 H   0  0  0  0  0  0  0  0  0  0  0  0
   -3.2182   -2.1988   -0.4655 H   0  0  0  0  0  0  0  0  0  0  0  0
   -2.2220   -0.9414   -1.3751 H   0  0  0  0  0  0  0  0  0  0  0  0
   -2.6948    1.3679   -0.5932 H   0  0  0  0  0  0  0  0  0  0  0  0
   -2.9703    1.4903    1.1523 H   0  0  0  0  0  0  0  0  0  0  0  0
   -0.7787    1.2224    1.6059 H   0  0  0  0  0  0  0  0  0  0  0  0
   -0.5752    2.6266   -0.1746 H   0  0  0  0  0  0  0  0  0  0  0  0
   -0.6208    1.3233   -1.4379 H   0  0  0  0  0  0  0  0  0  0  0  0
    1.5737    2.1024   -0.9572 H   0  0  0  0  0  0  0  0  0  0  0  0
  1  2  1  0
  2  3  1  0
  3  4  1  0
  4  5  1  0
  5  6  1  0
  6  7  1  0
  7  8  1  0
  8  9  1  0
  9 10  1  0
 10 11  1  0
 11 12  1  0
 12  3  1  0
 10  5  1  0
  1 13  1  0
  2 14  1  0
  2 15  1  0
  3 16  1  6
  4 17  1  0
  4 18  1  0
  6 19  1  0
  6 20  1  0
  7 21  1  0
  7 22  1  0
  9 23  1  0
  9 24  1  0
 10 25  1  1
 11 26  1  0
 11 27  1  0
 12 28  1  0
M  END
$$$$

     RDKit          3D

 28 29  0  0  0  0  0  0  0  0999 V2000
    3.8823   -0.5333    0.5288 O   0  0  0  0  0  0  0  0  0  0  0  0
    2.9940   -0.0046   -0.4056 C   0  0  0  0  0  0  0  0  0  0  0  0
    1.5699   -0.0705    0.0887 C   0  0  1  0  0  0  0  0  0  0  0  0
    0.6553    0.4107   -1.0076 C   0  0  0  0  0  0  0  0  0  0  0  0
   -0.7263    0.3449   -0.6909 N   0  0  0  0  0  0  0  0  0  0  0  0
   -1.1140    1.5411   -0.0004 C   0  0  0  0  0  0  0  0  0  0  0  0
   -2.5411    1.5170    0.4297 C   0  0  0  0  0  0  0  0  0  0  0  0
   -2.7220    0.4161    1.2491 O   0  0  0  0  0  0  0  0  0  0  0  0
   -2.4471   -0.7838    0.6527 C   0  0  0  0  0  0  0  0  0  0  0  0
   -1.1491   -0.8699   -0.0642 C   0  0  2  0  0  0  0  0  0  0  0  0
   -0.1232   -1.4734    0.8550 C   0  0  0  0  0  0  0  0  0  0  0  0
    1.2066   -1.4607    0.3374 N   0  0  0  0  0  0  0  0  0  0  0  0
    4.1325    0.2050    1.1662 H   0  0  0  0  0  0  0  0  0  0  0  0
    3.2682    1.0497   -0.6020 H   0  0  0  0  0  0  0  0  0  0  0  0
    3.0908   -0.5511   -1.3725 H   0  0  0  0  0  0  0  0  0  0  0  0
    1.4603    0.5593    0.9862 H   0  0  0  0  0  0  0  0  0  0  0  0
    0.9028   -0.1718   -1.9291 H   0  0  0  0  0  0  0  0  0  0  0  0
    0.9383    1.4621   -1.2251 H   0  0  0  0  0  0  0  0  0  0  0  0
   -0.9617    2.4036   -0.6899 H   0  0  0  0  0  0  0  0  0  0  0  0
   -0.4676    1.7070    0.8782 H   0  0  0  0  0  0  0  0  0  0  0  0
   -3.2665    1.5838   -0.3876 H   0  0  0  0  0  0  0  0  0  0  0  0
   -2.7095    2.4223    1.0745 H   0  0  0  0  0  0  0  0  0  0  0  0
   -2.5111   -1.5603    1.4532 H   0  0  0  0  0  0  0  0  0  0  0  0
   -3.3094   -1.0283   -0.0364 H   0  0  0  0  0  0  0  0  0  0  0  0
   -1.2809   -1.6201   -0.9010 H   0  0  0  0  0  0  0  0  0  0  0  0
   -0.4111   -2.5572    0.9913 H   0  0  0  0  0  0  0  0  0  0  0  0
   -0.1926   -1.0184    1.8523 H   0  0  0  0  0  0  0  0  0  0  0  0
    1.8323   -1.9194    1.0042 H   0  0  0  0  0  0  0  0  0  0  0  0
  1  2  1  0
  2  3  1  0
  3  4  1  0
  4  5  1  0
  5  6  1  0
  6  7  1  0
  7  8  1  0
  8  9  1  0
  9 10  1  0
 10 11  1  0
 11 12  1  0
 12  3  1  0
 10  5  1  0
  1 13  1  0
  2 14  1  0
  2 15  1  0
  3 16  1  1
  4 17  1  0
  4 18  1  0
  6 19  1  0
  6 20  1  0
  7 21  1  0
  7 22  1  0
  9 23  1  0
  9 24  1  0
 10 25  1  6
 11 26  1  0
 11 27  1  0
 12 28  1  0
M  END
$$$$
