
     RDKit          3D

 21 22  0  0  0  0  0  0  0  0999 V2000
   -3.1590    0.0319    0.0251 N   0  0  0  0  0  0  0  0  0  0  0  0
   -1.8012    0.4455    0.4017 C   0  0  1  0  0  0  0  0  0  0  0  0
   -1.1289   -0.6112    1.0752 N   0  0  0  0  0  0  0  0  0  0  0  0
    0.2708   -0.5942    0.7212 C   0  0  2  0  0  0  0  0  0  0  0  0
    0.8685    0.7718    0.9302 C   0  0  0  0  0  0  0  0  0  0  0  0
    2.1060    0.8917   -0.3643 S   0  0  0  0  0  6  0  0  0  0  0  0
    3.4826    0.8049    0.1776 O   0  0  0  0  0  0  0  0  0  0  0  0
    1.8833    2.0821   -1.2296 O   0  0  0  0  0  0  0  0  0  0  0  0
    1.6507   -0.5858   -1.2791 C   0  0  0  0  0  0  0  0  0  0  0  0
    0.2796   -0.8282   -0.7834 C   0  0  2  0  0  0  0  0  0  0  0  0
   -0.8694    0.5515   -1.1826 S   0  0  0  0  0  0  0  0  0  0  0  0
   -3.0556   -0.8599   -0.5236 H   0  0  0  0  0  0  0  0  0  0  0  0
   -3.5115    0.7968   -0.6134 H   0  0  0  0  0  0  0  0  0  0  0  0
   -1.8572    1.3987    0.9112 H   0  0  0  0  0  0  0  0  0  0  0  0
   -1.2662   -0.6676    2.0886 H   0  0  0  0  0  0  0  0  0  0  0  0
    0.7751   -1.3812    1.2755 H   0  0  0  0  0  0  0  0  0  0  0  0
    0.1659    1.5867    0.7595 H   0  0  0  0  0  0  0  0  0  0  0  0
    1.3527    0.8725    1.9230 H   0  0  0  0  0  0  0  0  0  0  0  0
    2.3081   -1.3779   -0.9268 H   0  0  0  0  0  0  0  0  0  0  0  0
    1.6632   -0.4110   -2.3565 H   0  0  0  0  0  0  0  0  0  0  0  0
   -0.1575   -1.7893   -1.0297 H   0  0  0  0  0  0  0  0  0  0  0  0
  1  2  1  0
  2  3  1  0
  3  4  1  0
  4  5  1  0
  5  6  1  0
  6  7  2  0
  6  8  2  0
  6  9  1  0
  9 10  1  0
 10 11  1  0
 11  2  1  0
 10  4  1  0
  1 12  1  0
  1 13  1  0
  2 14  1  1
  3 15  1  0
  4 16  1  1
  5 17  1  0
  5 18  1  0
  9 19  1  0
  9 20  1  0
 10 21  1  1
M  END
$$$$

     RDKit          3D

 21 22  0  0  0  0  0  0  0  0999 V2000
    2.9571   -0.9304   -0.7650 N   0  0  0  0  0  0  0  0  0  0  0  0
    1.6110   -0.9636   -0.2033 C   0  0  1  0  0  0  0  0  0  0  0  0
    1.4570    0.2121    0.6154 N   0  0  0  0  0  0  0  0  0  0  0  0
    0.0869    0.6315    0.5630 C   0  0  2  0  0  0  0  0  0  0  0  0
   -0.8122   -0.4103    1.1072 C   0  0  0  0  0  0  0  0  0  0  0  0
   -2.2987   -0.2299    0.1345 S   0  0  0  0  0  6  0  0  0  0  0  0
   -2.6093   -1.5348   -0.5143 O   0  0  0  0  0  0  0  0  0  0  0  0
   -3.4262    0.3278    0.9197 O   0  0  0  0  0  0  0  0  0  0  0  0
   -1.6977    0.9654   -1.0602 C   0  0  0  0  0  0  0  0  0  0  0  0
   -0.2398    0.9058   -0.8636 C   0  0  2  0  0  0  0  0  0  0  0  0
    0.4893   -0.6067   -1.6167 S   0  0  0  0  0  0  0  0  0  0  0  0
    2.9877   -0.0548   -1.3685 H   0  0  0  0  0  0  0  0  0  0  0  0
    3.6789   -0.7768   -0.0340 H   0  0  0  0  0  0  0  0  0  0  0  0
    1.3658   -1.9024    0.2853 H   0  0  0  0  0  0  0  0  0  0  0  0
    1.6966    0.0346    1.6172 H   0  0  0  0  0  0  0  0  0  0  0  0
    0.0009    1.5686    1.1290 H   0  0  0  0  0  0  0  0  0  0  0  0
   -0.4323   -1.4287    1.1216 H   0  0  0  0  0  0  0  0  0  0  0  0
   -1.0925   -0.1118    2.1598 H   0  0  0  0  0  0  0  0  0  0  0  0
   -1.9472    0.5457   -2.0586 H   0  0  0  0  0  0  0  0  0  0  0  0
   -2.0952    1.9605   -0.8814 H   0  0  0  0  0  0  0  0  0  0  0  0
    0.3200    1.7984   -1.1832 H   0  0  0  0  0  0  0  0  0  0  0  0
  1  2  1  0
  2  3  1  0
  3  4  1  0
  4  5  1  0
  5  6  1  0
  6  7  2  0
  6  8  2  0
  6  9  1  0
  9 10  1  0
 10 11  1  0
 11  2  1  0
 10  4  1  0
  1 12  1  0
  1 13  1  0
  2 14  1  1
  3 15  1  0
  4 16  1  1
  5 17  1  0
  5 18  1  0
  9 19  1  0
  9 20  1  0
 10 21  1  6
M  END
$$$$

     RDKit          3D

 21 22  0  0  0  0  0  0  0  0999 V2000
    3.2067   -0.0221    0.3167 N   0  0  0  0  0  0  0  0  0  0  0  0
    1.8186    0.3502    0.4557 C   0  0  1  0  0  0  0  0  0  0  0  0
    1.2464    0.8361   -0.7721 N   0  0  0  0  0  0  0  0  0  0  0  0
   -0.1720    0.5926   -0.7527 C   0  0  2  0  0  0  0  0  0  0  0  0
   -0.8128    1.1420    0.5115 C   0  0  0  0  0  0  0  0  0  0  0  0
   -2.3583    0.2171    0.4701 S   0  0  0  0  0  6  0  0  0  0  0  0
   -3.3554    0.9047   -0.3913 O   0  0  0  0  0  0  0  0  0  0  0  0
   -2.8442   -0.0979    1.8339 O   0  0  0  0  0  0  0  0  0  0  0  0
   -1.7081   -1.2575   -0.3316 C   0  0  0  0  0  0  0  0  0  0  0  0
   -0.3203   -0.9093   -0.6928 C   0  0  2  0  0  0  0  0  0  0  0  0
    0.8723   -1.2133    0.6759 S   0  0  0  0  0  0  0  0  0  0  0  0
    3.5895   -0.1077    1.3024 H   0  0  0  0  0  0  0  0  0  0  0  0
    3.3590   -0.9283   -0.1431 H   0  0  0  0  0  0  0  0  0  0  0  0
    1.7199    1.0124    1.3106 H   0  0  0  0  0  0  0  0  0  0  0  0
    1.6505    0.2669   -1.5538 H   0  0  0  0  0  0  0  0  0  0  0  0
   -0.6237    1.0579   -1.6185 H   0  0  0  0  0  0  0  0  0  0  0  0
   -0.9836    2.2087    0.4260 H   0  0  0  0  0  0  0  0  0  0  0  0
   -0.3053    0.8186    1.4279 H   0  0  0  0  0  0  0  0  0  0  0  0
   -1.7054   -2.1046    0.3860 H   0  0  0  0  0  0  0  0  0  0  0  0
   -2.3046   -1.4380   -1.2296 H   0  0  0  0  0  0  0  0  0  0  0  0
    0.0307   -1.3284   -1.6310 H   0  0  0  0  0  0  0  0  0  0  0  0
  1  2  1  0
  2  3  1  0
  3  4  1  0
  4  5  1  0
  5  6  1  0
  6  7  2  0
  6  8  2  0
  6  9  1  0
  9 10  1  0
 10 11  1  0
 11  2  1  0
 10  4  1  0
  1 12  1  0
  1 13  1  0
  2 14  1  1
  3 15  1  0
  4 16  1  6
  5 17  1  0
  5 18  1  0
  9 19  1  0
  9 20  1  0
 10 21  1  6
M  END
$$$$

     RDKit          3D

 21 22  0  0  0  0  0  0  0  0999 V2000
    3.2687    0.1063    0.3421 N   0  0  0  0  0  0  0  0  0  0  0  0
    1.9606    0.0208   -0.2935 C   0  0  1  0  0  0  0  0  0  0  0  0
    1.2171   -1.0070    0.3668 N   0  0  0  0  0  0  0  0  0  0  0  0
   -0.1826   -0.7500    0.2557 C   0  0  2  0  0  0  0  0  0  0  0  0
   -0.7303   -0.9243   -1.1221 C   0  0  0  0  0  0  0  0  0  0  0  0
   -2.3229   -0.1194   -0.8809 S   0  0  0  0  0  6  0  0  0  0  0  0
   -2.8928    0.3831   -2.1356 O   0  0  0  0  0  0  0  0  0  0  0  0
   -3.2191   -1.0413   -0.1206 O   0  0  0  0  0  0  0  0  0  0  0  0
   -1.7192    1.1565    0.1944 C   0  0  0  0  0  0  0  0  0  0  0  0
   -0.4854    0.6082    0.7601 C   0  0  2  0  0  0  0  0  0  0  0  0
    1.0218    1.5142    0.2280 S   0  0  0  0  0  0  0  0  0  0  0  0
    3.0646    0.2187    1.3758 H   0  0  0  0  0  0  0  0  0  0  0  0
    3.7584    0.9659    0.0362 H   0  0  0  0  0  0  0  0  0  0  0  0
    2.0225   -0.0635   -1.3755 H   0  0  0  0  0  0  0  0  0  0  0  0
    1.5377   -1.2551    1.3044 H   0  0  0  0  0  0  0  0  0  0  0  0
   -0.7025   -1.4830    0.9109 H   0  0  0  0  0  0  0  0  0  0  0  0
   -0.9304   -1.9955   -1.3365 H   0  0  0  0  0  0  0  0  0  0  0  0
   -0.1583   -0.4275   -1.9133 H   0  0  0  0  0  0  0  0  0  0  0  0
   -1.4891    2.0905   -0.3934 H   0  0  0  0  0  0  0  0  0  0  0  0
   -2.4929    1.3698    0.9616 H   0  0  0  0  0  0  0  0  0  0  0  0
   -0.5259    0.6328    1.8657 H   0  0  0  0  0  0  0  0  0  0  0  0
  1  2  1  0
  2  3  1  0
  3  4  1  0
  4  5  1  0
  5  6  1  0
  6  7  2  0
  6  8  2  0
  6  9  1  0
  9 10  1  0
 10 11  1  0
 11  2  1  0
 10  4  1  0
  1 12  1  0
  1 13  1  0
  2 14  1  6
  3 15  1  0
  4 16  1  1
  5 17  1  0
  5 18  1  0
  9 19  1  0
  9 20  1  0
 10 21  1  1
M  END
$$$$

     RDKit          3D

 21 22  0  0  0  0  0  0  0  0999 V2000
    2.9147    0.2694   -0.1101 N   0  0  0  0  0  0  0  0  0  0  0  0
    1.9632   -0.6856    0.3466 C   0  0  1  0  0  0  0  0  0  0  0  0
    0.8137    0.0709    0.8684 N   0  0  0  0  0  0  0  0  0  0  0  0
    0.1458    0.6434   -0.2507 C   0  0  2  0  0  0  0  0  0  0  0  0
   -0.9947    1.4678    0.2012 C   0  0  0  0  0  0  0  0  0  0  0  0
   -2.2991    0.2707    0.3818 S   0  0  0  0  0  6  0  0  0  0  0  0
   -2.6484    0.0275    1.8015 O   0  0  0  0  0  0  0  0  0  0  0  0
   -3.4902    0.6531   -0.4525 O   0  0  0  0  0  0  0  0  0  0  0  0
   -1.4878   -1.1597   -0.3499 C   0  0  0  0  0  0  0  0  0  0  0  0
   -0.3685   -0.4999   -1.0921 C   0  0  2  0  0  0  0  0  0  0  0  0
    1.1451   -1.5498   -1.0538 S   0  0  0  0  0  0  0  0  0  0  0  0
    3.2235    0.8460    0.6761 H   0  0  0  0  0  0  0  0  0  0  0  0
    3.6672   -0.1147   -0.7111 H   0  0  0  0  0  0  0  0  0  0  0  0
    2.3217   -1.4304    1.0478 H   0  0  0  0  0  0  0  0  0  0  0  0
    0.2101   -0.5012    1.4660 H   0  0  0  0  0  0  0  0  0  0  0  0
    0.8871    1.1849   -0.8630 H   0  0  0  0  0  0  0  0  0  0  0  0
   -1.2673    2.3137   -0.4272 H   0  0  0  0  0  0  0  0  0  0  0  0
   -0.7362    1.8899    1.2162 H   0  0  0  0  0  0  0  0  0  0  0  0
   -2.2222   -1.6290   -1.0370 H   0  0  0  0  0  0  0  0  0  0  0  0
   -1.1397   -1.8507    0.4446 H   0  0  0  0  0  0  0  0  0  0  0  0
   -0.6382   -0.2162   -2.1029 H   0  0  0  0  0  0  0  0  0  0  0  0
  1  2  1  0
  2  3  1  0
  3  4  1  0
  4  5  1  0
  5  6  1  0
  6  7  2  0
  6  8  2  0
  6  9  1  0
  9 10  1  0
 10 11  1  0
 11  2  1  0
 10  4  1  0
  1 12  1  0
  1 13  1  0
  2 14  1  1
  3 15  1  0
  4 16  1  6
  5 17  1  0
  5 18  1  0
  9 19  1  0
  9 20  1  0
 10 21  1  6
M  END
$$$$

     RDKit          3D

 21 22  0  0  0  0  0  0  0  0999 V2000
   -2.7842   -0.1520   -0.6530 N   0  0  0  0  0  0  0  0  0  0  0  0
   -2.1080    0.6940    0.2896 C   0  0  1  0  0  0  0  0  0  0  0  0
   -1.0488   -0.0058    0.9851 N   0  0  0  0  0  0  0  0  0  0  0  0
   -0.0846   -0.4514    0.0289 C   0  0  2  0  0  0  0  0  0  0  0  0
    1.0770   -1.0315    0.7536 C   0  0  0  0  0  0  0  0  0  0  0  0
    2.4709   -0.3656   -0.1288 S   0  0  0  0  0  6  0  0  0  0  0  0
    3.6369   -0.1042    0.7418 O   0  0  0  0  0  0  0  0  0  0  0  0
    2.7945   -1.1778   -1.3455 O   0  0  0  0  0  0  0  0  0  0  0  0
    1.6360    1.1638   -0.5991 C   0  0  0  0  0  0  0  0  0  0  0  0
    0.3023    0.6131   -0.8828 C   0  0  2  0  0  0  0  0  0  0  0  0
   -1.0506    1.8315   -0.7020 S   0  0  0  0  0  0  0  0  0  0  0  0
   -3.7585    0.1229   -0.8447 H   0  0  0  0  0  0  0  0  0  0  0  0
   -2.6163   -1.1554   -0.5338 H   0  0  0  0  0  0  0  0  0  0  0  0
   -2.7434    1.2308    0.9738 H   0  0  0  0  0  0  0  0  0  0  0  0
   -1.4448   -0.8607    1.4539 H   0  0  0  0  0  0  0  0  0  0  0  0
   -0.5693   -1.2973   -0.5441 H   0  0  0  0  0  0  0  0  0  0  0  0
    1.1493   -0.6075    1.7973 H   0  0  0  0  0  0  0  0  0  0  0  0
    1.0889   -2.1379    0.7867 H   0  0  0  0  0  0  0  0  0  0  0  0
    2.0927    1.5878   -1.5158 H   0  0  0  0  0  0  0  0  0  0  0  0
    1.6999    1.8335    0.2752 H   0  0  0  0  0  0  0  0  0  0  0  0
    0.2598    0.2696   -1.9393 H   0  0  0  0  0  0  0  0  0  0  0  0
  1  2  1  0
  2  3  1  0
  3  4  1  0
  4  5  1  0
  5  6  1  0
  6  7  2  0
  6  8  2  0
  6  9  1  0
  9 10  1  0
 10 11  1  0
 11  2  1  0
 10  4  1  0
  1 12  1  0
  1 13  1  0
  2 14  1  1
  3 15  1  0
  4 16  1  6
  5 17  1  0
  5 18  1  0
  9 19  1  0
  9 20  1  0
 10 21  1  6
M  END
$$$$

     RDKit          3D

 21 22  0  0  0  0  0  0  0  0999 V2000
    2.9388    0.6943   -0.1763 N   0  0  0  0  0  0  0  0  0  0  0  0
    2.2012   -0.5184    0.1148 C   0  0  1  0  0  0  0  0  0  0  0  0
    1.1366   -0.3492    1.0288 N   0  0  0  0  0  0  0  0  0  0  0  0
    0.0554    0.3837    0.4805 C   0  0  2  0  0  0  0  0  0  0  0  0
   -1.1497    0.1583    1.3376 C   0  0  0  0  0  0  0  0  0  0  0  0
   -2.4686    0.2049    0.1452 S   0  0  0  0  0  6  0  0  0  0  0  0
   -2.8856    1.5832   -0.2016 O   0  0  0  0  0  0  0  0  0  0  0  0
   -3.6019   -0.6875    0.5177 O   0  0  0  0  0  0  0  0  0  0  0  0
   -1.4898   -0.5331   -1.1790 C   0  0  0  0  0  0  0  0  0  0  0  0
   -0.1846    0.1010   -0.9187 C   0  0  2  0  0  0  0  0  0  0  0  0
    1.2451   -0.9244   -1.4058 S   0  0  0  0  0  0  0  0  0  0  0  0
    2.3514    1.3233   -0.7723 H   0  0  0  0  0  0  0  0  0  0  0  0
    3.7791    0.4143   -0.7551 H   0  0  0  0  0  0  0  0  0  0  0  0
    2.8355   -1.3523    0.4163 H   0  0  0  0  0  0  0  0  0  0  0  0
    0.9060   -1.1425    1.6254 H   0  0  0  0  0  0  0  0  0  0  0  0
    0.3138    1.4804    0.5958 H   0  0  0  0  0  0  0  0  0  0  0  0
   -1.2834    0.8958    2.1422 H   0  0  0  0  0  0  0  0  0  0  0  0
   -1.1043   -0.8896    1.7182 H   0  0  0  0  0  0  0  0  0  0  0  0
   -1.9448   -0.2380   -2.1442 H   0  0  0  0  0  0  0  0  0  0  0  0
   -1.5361   -1.6269   -1.0008 H   0  0  0  0  0  0  0  0  0  0  0  0
   -0.1140    1.0229   -1.5687 H   0  0  0  0  0  0  0  0  0  0  0  0
  1  2  1  0
  2  3  1  0
  3  4  1  0
  4  5  1  0
  5  6  1  0
  6  7  2  0
  6  8  2  0
  6  9  1  0
  9 10  1  0
 10 11  1  0
 11  2  1  0
 10  4  1  0
  1 12  1  0
  1 13  1  0
  2 14  1  1
  3 15  1  0
  4 16  1  6
  5 17  1  0
  5 18  1  0
  9 19  1  0
  9 20  1  0
 10 21  1  6
M  END
$$$$

     RDKit          3D

 21 22  0  0  0  0  0  0  0  0999 V2000
    3.0139    0.5222   -0.0345 N   0  0  0  0  0  0  0  0  0  0  0  0
    1.9802   -0.3929   -0.5429 C   0  0  1  0  0  0  0  0  0  0  0  0
    1.2311   -0.8509    0.5515 N   0  0  0  0  0  0  0  0  0  0  0  0
   -0.0360   -0.3027    0.6864 C   0  0  2  0  0  0  0  0  0  0  0  0
   -1.0724   -1.2788    0.1925 C   0  0  0  0  0  0  0  0  0  0  0  0
   -2.4633   -0.1828   -0.1116 S   0  0  0  0  0  6  0  0  0  0  0  0
   -3.3681   -0.1675    1.0798 O   0  0  0  0  0  0  0  0  0  0  0  0
   -3.1593   -0.5148   -1.3802 O   0  0  0  0  0  0  0  0  0  0  0  0
   -1.5686    1.3385   -0.2862 C   0  0  0  0  0  0  0  0  0  0  0  0
   -0.1901    0.9877    0.0026 C   0  0  2  0  0  0  0  0  0  0  0  0
    0.8209    0.6363   -1.4950 S   0  0  0  0  0  0  0  0  0  0  0  0
    2.9389    1.4630   -0.4279 H   0  0  0  0  0  0  0  0  0  0  0  0
    3.9559    0.1211   -0.1122 H   0  0  0  0  0  0  0  0  0  0  0  0
    2.4338   -1.1848   -1.1713 H   0  0  0  0  0  0  0  0  0  0  0  0
    1.2004   -1.9129    0.5201 H   0  0  0  0  0  0  0  0  0  0  0  0
   -0.2608   -0.1486    1.7832 H   0  0  0  0  0  0  0  0  0  0  0  0
   -0.7786   -1.7719   -0.7501 H   0  0  0  0  0  0  0  0  0  0  0  0
   -1.3622   -2.0023    0.9658 H   0  0  0  0  0  0  0  0  0  0  0  0
   -1.9662    2.0958    0.4207 H   0  0  0  0  0  0  0  0  0  0  0  0
   -1.7145    1.7840   -1.3060 H   0  0  0  0  0  0  0  0  0  0  0  0
    0.3650    1.7625    0.5529 H   0  0  0  0  0  0  0  0  0  0  0  0
  1  2  1  0
  2  3  1  0
  3  4  1  0
  4  5  1  0
  5  6  1  0
  6  7  2  0
  6  8  2  0
  6  9  1  0
  9 10  1  0
 10 11  1  0
 11  2  1  0
 10  4  1  0
  1 12  1  0
  1 13  1  0
  2 14  1  6
  3 15  1  0
  4 16  1  1
  5 17  1  0
  5 18  1  0
  9 19  1  0
  9 20  1  0
 10 21  1  1
M  END
$$$$
