
     RDKit          3D

 25 25  0  0  0  0  0  0  0  0999 V2000
   -1.9982    1.3497    0.3036 C   0  0  0  0  0  0  0  0  0  0  0  0
   -1.5059    0.2617    1.2344 C   0  0  1  0  0  0  0  0  0  0  0  0
   -2.3975    0.1092    2.2825 O   0  0  0  0  0  0  0  0  0  0  0  0
   -1.2909   -1.0449    0.4999 C   0  0  1  0  0  0  0  0  0  0  0  0
   -2.5075   -1.5666   -0.0572 N   0  0  0  0  0  0  0  0  0  0  0  0
   -0.2301   -0.8835   -0.5289 C   0  0  0  0  0  0  0  0  0  0  0  0
   -0.4427   -1.1869   -1.7232 O   0  0  0  0  0  0  0  0  0  0  0  0
    1.0337   -0.3858   -0.1767 N   0  0  0  0  0  0  0  0  0  0  0  0
    2.1300   -0.1884   -1.0818 C   0  0  0  0  0  0  0  0  0  0  0  0
    3.5324   -0.1582   -0.6640 C   0  0  0  0  0  0  0  0  0  0  0  0
    2.8464    1.1507   -0.8529 C   0  0  0  0  0  0  0  0  0  0  0  0
   -2.9631    0.9970   -0.1435 H   0  0  0  0  0  0  0  0  0  0  0  0
   -2.1962    2.2530    0.9124 H   0  0  0  0  0  0  0  0  0  0  0  0
   -1.2966    1.5705   -0.5007 H   0  0  0  0  0  0  0  0  0  0  0  0
   -0.5228    0.5908    1.6296 H   0  0  0  0  0  0  0  0  0  0  0  0
   -3.1071    0.7802    2.2199 H   0  0  0  0  0  0  0  0  0  0  0  0
   -0.8839   -1.7611    1.2568 H   0  0  0  0  0  0  0  0  0  0  0  0
   -2.5028   -2.6020    0.0786 H   0  0  0  0  0  0  0  0  0  0  0  0
   -2.5849   -1.2979   -1.0618 H   0  0  0  0  0  0  0  0  0  0  0  0
    1.2046   -0.1343    0.8228 H   0  0  0  0  0  0  0  0  0  0  0  0
    1.8985   -0.4712   -2.1364 H   0  0  0  0  0  0  0  0  0  0  0  0
    3.8630   -0.4489    0.3589 H   0  0  0  0  0  0  0  0  0  0  0  0
    4.2915   -0.3989   -1.4374 H   0  0  0  0  0  0  0  0  0  0  0  0
    2.9890    1.7530   -1.7702 H   0  0  0  0  0  0  0  0  0  0  0  0
    2.6414    1.7129    0.0581 H   0  0  0  0  0  0  0  0  0  0  0  0
  1  2  1  0
  2  3  1  0
  2  4  1  0
  4  5  1  0
  4  6  1  0
  6  7  2  0
  6  8  1  0
  8  9  1  0
  9 10  1  0
 10 11  1  0
 11  9  1  0
  1 12  1  0
  1 13  1  0
  1 14  1  0
  2 15  1  1
  3 16  1  0
  4 17  1  1
  5 18  1  0
  5 19  1  0
  8 20  1  0
  9 21  1  0
 10 22  1  0
 10 23  1  0
 11 24  1  0
 11 25  1  0
M  END
$$$$

     RDKit          3D

 25 25  0  0  0  0  0  0  0  0999 V2000
   -2.5463    0.4022    1.9165 C   0  0  0  0  0  0  0  0  0  0  0  0
   -2.3656    0.2014    0.4568 C   0  0  1  0  0  0  0  0  0  0  0  0
   -2.1117    1.3747   -0.2393 O   0  0  0  0  0  0  0  0  0  0  0  0
   -1.3093   -0.7999    0.0915 C   0  0  1  0  0  0  0  0  0  0  0  0
   -1.3451   -1.0557   -1.3360 N   0  0  0  0  0  0  0  0  0  0  0  0
    0.0542   -0.3705    0.4342 C   0  0  0  0  0  0  0  0  0  0  0  0
    0.2926   -0.0974    1.6425 O   0  0  0  0  0  0  0  0  0  0  0  0
    1.1042   -0.2494   -0.5171 N   0  0  0  0  0  0  0  0  0  0  0  0
    2.3988    0.1775   -0.0799 C   0  0  0  0  0  0  0  0  0  0  0  0
    3.5422   -0.5746   -0.7734 C   0  0  0  0  0  0  0  0  0  0  0  0
    3.3423    0.8753   -0.9814 C   0  0  0  0  0  0  0  0  0  0  0  0
   -3.6061    0.2336    2.2445 H   0  0  0  0  0  0  0  0  0  0  0  0
   -1.9271   -0.2428    2.5568 H   0  0  0  0  0  0  0  0  0  0  0  0
   -2.3649    1.4949    2.1370 H   0  0  0  0  0  0  0  0  0  0  0  0
   -3.3343   -0.1954    0.0474 H   0  0  0  0  0  0  0  0  0  0  0  0
   -2.8673    1.7233   -0.7389 H   0  0  0  0  0  0  0  0  0  0  0  0
   -1.5073   -1.7839    0.5893 H   0  0  0  0  0  0  0  0  0  0  0  0
   -1.2398   -0.1735   -1.8915 H   0  0  0  0  0  0  0  0  0  0  0  0
   -2.2862   -1.4414   -1.5718 H   0  0  0  0  0  0  0  0  0  0  0  0
    0.8974   -0.4790   -1.5228 H   0  0  0  0  0  0  0  0  0  0  0  0
    2.5176    0.3950    0.9925 H   0  0  0  0  0  0  0  0  0  0  0  0
    3.2996   -1.2146   -1.6448 H   0  0  0  0  0  0  0  0  0  0  0  0
    4.2850   -0.9747   -0.0849 H   0  0  0  0  0  0  0  0  0  0  0  0
    2.9711    1.2418   -1.9588 H   0  0  0  0  0  0  0  0  0  0  0  0
    4.1063    1.5332   -0.5350 H   0  0  0  0  0  0  0  0  0  0  0  0
  1  2  1  0
  2  3  1  0
  2  4  1  0
  4  5  1  0
  4  6  1  0
  6  7  2  0
  6  8  1  0
  8  9  1  0
  9 10  1  0
 10 11  1  0
 11  9  1  0
  1 12  1  0
  1 13  1  0
  1 14  1  0
  2 15  1  6
  3 16  1  0
  4 17  1  1
  5 18  1  0
  5 19  1  0
  8 20  1  0
  9 21  1  0
 10 22  1  0
 10 23  1  0
 11 24  1  0
 11 25  1  0
M  END
$$$$

     RDKit          3D

 25 25  0  0  0  0  0  0  0  0999 V2000
   -1.9715    0.6321   -1.6113 C   0  0  0  0  0  0  0  0  0  0  0  0
   -2.0761    0.3400   -0.1509 C   0  0  1  0  0  0  0  0  0  0  0  0
   -3.4186    0.1823    0.1925 O   0  0  0  0  0  0  0  0  0  0  0  0
   -1.3617   -0.9253    0.2619 C   0  0  1  0  0  0  0  0  0  0  0  0
   -1.9124   -2.0631   -0.4150 N   0  0  0  0  0  0  0  0  0  0  0  0
    0.0905   -0.8545    0.0667 C   0  0  0  0  0  0  0  0  0  0  0  0
    0.6692   -1.7365   -0.6261 O   0  0  0  0  0  0  0  0  0  0  0  0
    0.9153    0.1609    0.6147 N   0  0  0  0  0  0  0  0  0  0  0  0
    2.3598    0.1966    0.3971 C   0  0  0  0  0  0  0  0  0  0  0  0
    3.2474    0.6485    1.4947 C   0  0  0  0  0  0  0  0  0  0  0  0
    3.0650    1.4886    0.2502 C   0  0  0  0  0  0  0  0  0  0  0  0
   -2.9350    0.3925   -2.1498 H   0  0  0  0  0  0  0  0  0  0  0  0
   -1.1364    0.0917   -2.0670 H   0  0  0  0  0  0  0  0  0  0  0  0
   -1.8576    1.7497   -1.7288 H   0  0  0  0  0  0  0  0  0  0  0  0
   -1.6940    1.1751    0.4838 H   0  0  0  0  0  0  0  0  0  0  0  0
   -3.8120   -0.5403   -0.3760 H   0  0  0  0  0  0  0  0  0  0  0  0
   -1.5976   -1.0621    1.3583 H   0  0  0  0  0  0  0  0  0  0  0  0
   -1.9509   -2.8927    0.2460 H   0  0  0  0  0  0  0  0  0  0  0  0
   -1.2747   -2.3760   -1.1973 H   0  0  0  0  0  0  0  0  0  0  0  0
    0.4412    0.8916    1.1878 H   0  0  0  0  0  0  0  0  0  0  0  0
    2.7427   -0.6394   -0.2318 H   0  0  0  0  0  0  0  0  0  0  0  0
    4.1899    0.0976    1.6556 H   0  0  0  0  0  0  0  0  0  0  0  0
    2.7907    1.0615    2.4196 H   0  0  0  0  0  0  0  0  0  0  0  0
    2.5207    2.4490    0.3207 H   0  0  0  0  0  0  0  0  0  0  0  0
    3.9664    1.5323   -0.3957 H   0  0  0  0  0  0  0  0  0  0  0  0
  1  2  1  0
  2  3  1  0
  2  4  1  0
  4  5  1  0
  4  6  1  0
  6  7  2  0
  6  8  1  0
  8  9  1  0
  9 10  1  0
 10 11  1  0
 11  9  1  0
  1 12  1  0
  1 13  1  0
  1 14  1  0
  2 15  1  1
  3 16  1  0
  4 17  1  1
  5 18  1  0
  5 19  1  0
  8 20  1  0
  9 21  1  0
 10 22  1  0
 10 23  1  0
 11 24  1  0
 11 25  1  0
M  END
$$$$

     RDKit          3D

 25 25  0  0  0  0  0  0  0  0999 V2000
   -3.2087   -0.9858    0.0315 C   0  0  0  0  0  0  0  0  0  0  0  0
   -1.8068   -0.5096    0.3176 C   0  0  1  0  0  0  0  0  0  0  0  0
   -0.9914   -1.6298    0.4184 O   0  0  0  0  0  0  0  0  0  0  0  0
   -1.3220    0.4763   -0.7263 C   0  0  1  0  0  0  0  0  0  0  0  0
   -2.2068    1.6278   -0.7980 N   0  0  0  0  0  0  0  0  0  0  0  0
    0.0431    0.9089   -0.3509 C   0  0  0  0  0  0  0  0  0  0  0  0
    0.2477    2.1397   -0.1014 O   0  0  0  0  0  0  0  0  0  0  0  0
    1.1692    0.0683   -0.2402 N   0  0  0  0  0  0  0  0  0  0  0  0
    2.4860    0.5974    0.1413 C   0  0  0  0  0  0  0  0  0  0  0  0
    3.2214   -0.2207    1.1671 C   0  0  0  0  0  0  0  0  0  0  0  0
    3.7143   -0.1052   -0.2526 C   0  0  0  0  0  0  0  0  0  0  0  0
   -3.2732   -1.6287   -0.8659 H   0  0  0  0  0  0  0  0  0  0  0  0
   -3.8738   -0.1087   -0.0005 H   0  0  0  0  0  0  0  0  0  0  0  0
   -3.5210   -1.6135    0.8915 H   0  0  0  0  0  0  0  0  0  0  0  0
   -1.8348   -0.0391    1.3312 H   0  0  0  0  0  0  0  0  0  0  0  0
   -1.1334   -2.0718    1.2795 H   0  0  0  0  0  0  0  0  0  0  0  0
   -1.3707   -0.0324   -1.7080 H   0  0  0  0  0  0  0  0  0  0  0  0
   -1.7221    2.4122   -1.2900 H   0  0  0  0  0  0  0  0  0  0  0  0
   -3.1163    1.3953   -1.2082 H   0  0  0  0  0  0  0  0  0  0  0  0
    1.0506   -0.9469   -0.4383 H   0  0  0  0  0  0  0  0  0  0  0  0
    2.5141    1.6844    0.3291 H   0  0  0  0  0  0  0  0  0  0  0  0
    2.8594   -1.2368    1.4312 H   0  0  0  0  0  0  0  0  0  0  0  0
    3.7805    0.3036    1.9640 H   0  0  0  0  0  0  0  0  0  0  0  0
    3.6689   -1.0154   -0.9126 H   0  0  0  0  0  0  0  0  0  0  0  0
    4.6258    0.5305   -0.4093 H   0  0  0  0  0  0  0  0  0  0  0  0
  1  2  1  0
  2  3  1  0
  2  4  1  0
  4  5  1  0
  4  6  1  0
  6  7  2  0
  6  8  1  0
  8  9  1  0
  9 10  1  0
 10 11  1  0
 11  9  1  0
  1 12  1  0
  1 13  1  0
  1 14  1  0
  2 15  1  1
  3 16  1  0
  4 17  1  6
  5 18  1  0
  5 19  1  0
  8 20  1  0
  9 21  1  0
 10 22  1  0
 10 23  1  0
 11 24  1  0
 11 25  1  0
M  END
$$$$

     RDKit          3D

 25 25  0  0  0  0  0  0  0  0999 V2000
   -3.5166   -0.0219   -0.6043 C   0  0  0  0  0  0  0  0  0  0  0  0
   -2.3827    0.1404    0.3886 C   0  0  1  0  0  0  0  0  0  0  0  0
   -2.7471   -0.2513    1.6636 O   0  0  0  0  0  0  0  0  0  0  0  0
   -1.2129   -0.6085   -0.1655 C   0  0  1  0  0  0  0  0  0  0  0  0
   -0.9509   -0.0936   -1.4938 N   0  0  0  0  0  0  0  0  0  0  0  0
   -0.0080   -0.5724    0.6438 C   0  0  0  0  0  0  0  0  0  0  0  0
    0.0767   -0.9540    1.8407 O   0  0  0  0  0  0  0  0  0  0  0  0
    1.1853   -0.0691    0.0583 N   0  0  0  0  0  0  0  0  0  0  0  0
    2.4438    0.0140    0.7689 C   0  0  0  0  0  0  0  0  0  0  0  0
    3.2678    1.2589    0.5471 C   0  0  0  0  0  0  0  0  0  0  0  0
    3.7139   -0.0524   -0.0079 C   0  0  0  0  0  0  0  0  0  0  0  0
   -4.5066    0.1241   -0.1296 H   0  0  0  0  0  0  0  0  0  0  0  0
   -3.4294   -1.0442   -1.0322 H   0  0  0  0  0  0  0  0  0  0  0  0
   -3.3537    0.7285   -1.4059 H   0  0  0  0  0  0  0  0  0  0  0  0
   -2.1301    1.2095    0.4264 H   0  0  0  0  0  0  0  0  0  0  0  0
   -2.4721   -1.1612    1.8941 H   0  0  0  0  0  0  0  0  0  0  0  0
   -1.5323   -1.6844   -0.2425 H   0  0  0  0  0  0  0  0  0  0  0  0
   -0.2853   -0.6840   -2.0253 H   0  0  0  0  0  0  0  0  0  0  0  0
   -0.6726    0.9060   -1.4304 H   0  0  0  0  0  0  0  0  0  0  0  0
    1.2106    0.2760   -0.9466 H   0  0  0  0  0  0  0  0  0  0  0  0
    2.3986   -0.3510    1.8171 H   0  0  0  0  0  0  0  0  0  0  0  0
    2.8984    2.0216   -0.1853 H   0  0  0  0  0  0  0  0  0  0  0  0
    3.8869    1.6782    1.3380 H   0  0  0  0  0  0  0  0  0  0  0  0
    4.5401   -0.5873    0.5081 H   0  0  0  0  0  0  0  0  0  0  0  0
    3.5780   -0.2219   -1.1023 H   0  0  0  0  0  0  0  0  0  0  0  0
  1  2  1  0
  2  3  1  0
  2  4  1  0
  4  5  1  0
  4  6  1  0
  6  7  2  0
  6  8  1  0
  8  9  1  0
  9 10  1  0
 10 11  1  0
 11  9  1  0
  1 12  1  0
  1 13  1  0
  1 14  1  0
  2 15  1  1
  3 16  1  0
  4 17  1  6
  5 18  1  0
  5 19  1  0
  8 20  1  0
  9 21  1  0
 10 22  1  0
 10 23  1  0
 11 24  1  0
 11 25  1  0
M  END
$$$$

     RDKit          3D

 25 25  0  0  0  0  0  0  0  0999 V2000
   -2.6837   -0.6805   -1.4910 C   0  0  0  0  0  0  0  0  0  0  0  0
   -2.3771   -0.4197   -0.0374 C   0  0  1  0  0  0  0  0  0  0  0  0
   -1.9349   -1.5424    0.6212 O   0  0  0  0  0  0  0  0  0  0  0  0
   -1.4198    0.7537    0.0994 C   0  0  1  0  0  0  0  0  0  0  0  0
   -1.2628    1.0953    1.4938 N   0  0  0  0  0  0  0  0  0  0  0  0
   -0.1141    0.3849   -0.4972 C   0  0  0  0  0  0  0  0  0  0  0  0
   -0.1163    0.0627   -1.7230 O   0  0  0  0  0  0  0  0  0  0  0  0
    1.0802    0.3920    0.2665 N   0  0  0  0  0  0  0  0  0  0  0  0
    2.3022    0.0260   -0.3706 C   0  0  0  0  0  0  0  0  0  0  0  0
    3.1645   -0.9172    0.5003 C   0  0  0  0  0  0  0  0  0  0  0  0
    3.6266    0.4303    0.1376 C   0  0  0  0  0  0  0  0  0  0  0  0
   -1.9490   -1.3688   -1.9573 H   0  0  0  0  0  0  0  0  0  0  0  0
   -3.7164   -1.1083   -1.5486 H   0  0  0  0  0  0  0  0  0  0  0  0
   -2.7247    0.2736   -2.0514 H   0  0  0  0  0  0  0  0  0  0  0  0
   -3.3382   -0.0739    0.4262 H   0  0  0  0  0  0  0  0  0  0  0  0
   -1.4277   -1.2956    1.4366 H   0  0  0  0  0  0  0  0  0  0  0  0
   -1.8771    1.6060   -0.4243 H   0  0  0  0  0  0  0  0  0  0  0  0
   -2.2281    1.1502    1.8979 H   0  0  0  0  0  0  0  0  0  0  0  0
   -0.7783    2.0250    1.5290 H   0  0  0  0  0  0  0  0  0  0  0  0
    1.0109    0.6668    1.2683 H   0  0  0  0  0  0  0  0  0  0  0  0
    2.2250   -0.2451   -1.4479 H   0  0  0  0  0  0  0  0  0  0  0  0
    2.8762   -1.0605    1.5572 H   0  0  0  0  0  0  0  0  0  0  0  0
    3.4775   -1.8266   -0.0078 H   0  0  0  0  0  0  0  0  0  0  0  0
    4.4436    0.4791   -0.6116 H   0  0  0  0  0  0  0  0  0  0  0  0
    3.7412    1.1931    0.9341 H   0  0  0  0  0  0  0  0  0  0  0  0
  1  2  1  0
  2  3  1  0
  2  4  1  0
  4  5  1  0
  4  6  1  0
  6  7  2  0
  6  8  1  0
  8  9  1  0
  9 10  1  0
 10 11  1  0
 11  9  1  0
  1 12  1  0
  1 13  1  0
  1 14  1  0
  2 15  1  1
  3 16  1  0
  4 17  1  6
  5 18  1  0
  5 19  1  0
  8 20  1  0
  9 21  1  0
 10 22  1  0
 10 23  1  0
 11 24  1  0
 11 25  1  0
M  END
$$$$

     RDKit          3D

 25 25  0  0  0  0  0  0  0  0999 V2000
   -1.7376   -0.1561   -2.1631 C   0  0  0  0  0  0  0  0  0  0  0  0
   -1.7990    1.1874   -1.4381 C   0  0  1  0  0  0  0  0  0  0  0  0
   -3.1525    1.4593   -1.2345 O   0  0  0  0  0  0  0  0  0  0  0  0
   -1.1578    1.1000   -0.0735 C   0  0  1  0  0  0  0  0  0  0  0  0
   -1.8125    0.0333    0.6466 N   0  0  0  0  0  0  0  0  0  0  0  0
    0.2963    0.9450   -0.1193 C   0  0  0  0  0  0  0  0  0  0  0  0
    1.0172    1.7852   -0.7066 O   0  0  0  0  0  0  0  0  0  0  0  0
    0.9039   -0.1718    0.5090 N   0  0  0  0  0  0  0  0  0  0  0  0
    2.3036   -0.4286    0.5311 C   0  0  0  0  0  0  0  0  0  0  0  0
    2.8226   -0.8615    1.9045 C   0  0  0  0  0  0  0  0  0  0  0  0
    2.9213   -1.7392    0.6880 C   0  0  0  0  0  0  0  0  0  0  0  0
   -2.5055   -0.1918   -2.9587 H   0  0  0  0  0  0  0  0  0  0  0  0
   -0.7159   -0.3195   -2.5850 H   0  0  0  0  0  0  0  0  0  0  0  0
   -1.9744   -0.9489   -1.4085 H   0  0  0  0  0  0  0  0  0  0  0  0
   -1.3501    1.9939   -2.0373 H   0  0  0  0  0  0  0  0  0  0  0  0
   -3.6505    0.6136   -1.1737 H   0  0  0  0  0  0  0  0  0  0  0  0
   -1.3969    2.0534    0.4498 H   0  0  0  0  0  0  0  0  0  0  0  0
   -1.4754    0.0440    1.6534 H   0  0  0  0  0  0  0  0  0  0  0  0
   -2.8310    0.1428    0.6367 H   0  0  0  0  0  0  0  0  0  0  0  0
    0.2619   -0.8418    0.9839 H   0  0  0  0  0  0  0  0  0  0  0  0
    2.9049    0.3609   -0.0108 H   0  0  0  0  0  0  0  0  0  0  0  0
    2.1086   -1.1872    2.6585 H   0  0  0  0  0  0  0  0  0  0  0  0
    3.6996   -0.3121    2.2706 H   0  0  0  0  0  0  0  0  0  0  0  0
    3.9603   -1.8642    0.3163 H   0  0  0  0  0  0  0  0  0  0  0  0
    2.3589   -2.6961    0.6437 H   0  0  0  0  0  0  0  0  0  0  0  0
  1  2  1  0
  2  3  1  0
  2  4  1  0
  4  5  1  0
  4  6  1  0
  6  7  2  0
  6  8  1  0
  8  9  1  0
  9 10  1  0
 10 11  1  0
 11  9  1  0
  1 12  1  0
  1 13  1  0
  1 14  1  0
  2 15  1  6
  3 16  1  0
  4 17  1  1
  5 18  1  0
  5 19  1  0
  8 20  1  0
  9 21  1  0
 10 22  1  0
 10 23  1  0
 11 24  1  0
 11 25  1  0
M  END
$$$$

     RDKit          3D

 25 25  0  0  0  0  0  0  0  0999 V2000
    3.6231   -0.2265   -0.0052 C   0  0  0  0  0  0  0  0  0  0  0  0
    2.2920    0.4351    0.3201 C   0  0  1  0  0  0  0  0  0  0  0  0
    2.3840    1.8005    0.1663 O   0  0  0  0  0  0  0  0  0  0  0  0
    1.2653   -0.1383   -0.6314 C   0  0  1  0  0  0  0  0  0  0  0  0
    1.1764   -1.5778   -0.4610 N   0  0  0  0  0  0  0  0  0  0  0  0
   -0.0351    0.5208   -0.3694 C   0  0  0  0  0  0  0  0  0  0  0  0
   -0.0502    1.7867   -0.4967 O   0  0  0  0  0  0  0  0  0  0  0  0
   -1.2024   -0.1976    0.0013 N   0  0  0  0  0  0  0  0  0  0  0  0
   -2.4050    0.5309    0.2312 C   0  0  0  0  0  0  0  0  0  0  0  0
   -3.6349   -0.1493   -0.4187 C   0  0  0  0  0  0  0  0  0  0  0  0
   -3.5182    0.0175    1.0496 C   0  0  0  0  0  0  0  0  0  0  0  0
    4.1839    0.4852   -0.6595 H   0  0  0  0  0  0  0  0  0  0  0  0
    4.2085   -0.3617    0.9472 H   0  0  0  0  0  0  0  0  0  0  0  0
    3.4384   -1.1950   -0.4817 H   0  0  0  0  0  0  0  0  0  0  0  0
    2.0069    0.1567    1.3721 H   0  0  0  0  0  0  0  0  0  0  0  0
    1.8623    2.2989    0.8639 H   0  0  0  0  0  0  0  0  0  0  0  0
    1.6172    0.0481   -1.6626 H   0  0  0  0  0  0  0  0  0  0  0  0
    1.2112   -1.8803    0.5246 H   0  0  0  0  0  0  0  0  0  0  0  0
    0.4193   -1.9998   -1.0069 H   0  0  0  0  0  0  0  0  0  0  0  0
   -1.1213   -1.2334    0.0880 H   0  0  0  0  0  0  0  0  0  0  0  0
   -2.3310    1.6306    0.0985 H   0  0  0  0  0  0  0  0  0  0  0  0
   -4.2391    0.5292   -1.0411 H   0  0  0  0  0  0  0  0  0  0  0  0
   -3.5336   -1.1692   -0.7937 H   0  0  0  0  0  0  0  0  0  0  0  0
   -4.1951    0.7749    1.4930 H   0  0  0  0  0  0  0  0  0  0  0  0
   -3.4226   -0.8863    1.6794 H   0  0  0  0  0  0  0  0  0  0  0  0
  1  2  1  0
  2  3  1  0
  2  4  1  0
  4  5  1  0
  4  6  1  0
  6  7  2  0
  6  8  1  0
  8  9  1  0
  9 10  1  0
 10 11  1  0
 11  9  1  0
  1 12  1  0
  1 13  1  0
  1 14  1  0
  2 15  1  1
  3 16  1  0
  4 17  1  6
  5 18  1  0
  5 19  1  0
  8 20  1  0
  9 21  1  0
 10 22  1  0
 10 23  1  0
 11 24  1  0
 11 25  1  0
M  END
$$$$
