
     RDKit          3D

 30 29  0  0  0  0  0  0  0  0999 V2000
   -2.5510   -1.2726    1.2223 C   0  0  0  0  0  0  0  0  0  0  0  0
   -1.5006   -0.9268    0.1999 C   0  0  0  0  0  0  0  0  0  0  0  0
   -0.9600    0.4642    0.4913 C   0  0  2  0  0  0  0  0  0  0  0  0
   -2.0878    1.4403    0.4165 C   0  0  0  0  0  0  0  0  0  0  0  0
    0.1675    0.8003   -0.4626 C   0  0  1  0  0  0  0  0  0  0  0  0
    1.2586   -0.1392   -0.3401 N   0  0  0  0  0  0  0  0  0  0  0  0
    2.5459    0.1815    0.1172 C   0  0  0  0  0  0  0  0  0  0  0  0
    2.7874    1.3755    0.4512 O   0  0  0  0  0  0  0  0  0  0  0  0
    3.6656   -0.7810    0.2431 C   0  0  0  0  0  0  0  0  0  0  0  0
    3.3134   -2.1084   -0.1534 N   0  0  0  0  0  0  0  0  0  0  0  0
   -0.2920    0.9650   -1.8436 C   0  0  0  0  0  0  0  0  0  0  0  0
   -1.3543    1.8407   -2.1933 N   0  0  0  0  0  0  0  0  0  0  0  0
    0.2378    0.3286   -2.8163 O   0  0  0  0  0  0  0  0  0  0  0  0
   -3.5663   -1.2479    0.7730 H   0  0  0  0  0  0  0  0  0  0  0  0
   -2.3863   -2.2893    1.6546 H   0  0  0  0  0  0  0  0  0  0  0  0
   -2.5226   -0.5766    2.1036 H   0  0  0  0  0  0  0  0  0  0  0  0
   -1.8954   -1.0092   -0.8357 H   0  0  0  0  0  0  0  0  0  0  0  0
   -0.6712   -1.6522    0.3306 H   0  0  0  0  0  0  0  0  0  0  0  0
   -0.6066    0.4400    1.5421 H   0  0  0  0  0  0  0  0  0  0  0  0
   -2.8228    1.1914   -0.3578 H   0  0  0  0  0  0  0  0  0  0  0  0
   -2.6618    1.4277    1.3897 H   0  0  0  0  0  0  0  0  0  0  0  0
   -1.7200    2.5034    0.3450 H   0  0  0  0  0  0  0  0  0  0  0  0
    0.5665    1.7932   -0.1254 H   0  0  0  0  0  0  0  0  0  0  0  0
    1.0573   -1.1283   -0.6172 H   0  0  0  0  0  0  0  0  0  0  0  0
    4.5311   -0.4470   -0.3591 H   0  0  0  0  0  0  0  0  0  0  0  0
    3.9848   -0.7932    1.3003 H   0  0  0  0  0  0  0  0  0  0  0  0
    4.2245   -2.6186   -0.3601 H   0  0  0  0  0  0  0  0  0  0  0  0
    2.7741   -2.1488   -1.0326 H   0  0  0  0  0  0  0  0  0  0  0  0
   -1.2779    2.8604   -1.9857 H   0  0  0  0  0  0  0  0  0  0  0  0
   -2.2380    1.5270   -2.6600 H   0  0  0  0  0  0  0  0  0  0  0  0
  1  2  1  0
  2  3  1  0
  3  4  1  0
  3  5  1  0
  5  6  1  0
  6  7  1  0
  7  8  2  0
  7  9  1  0
  9 10  1  0
  5 11  1  0
 11 12  1  0
 11 13  2  0
  1 14  1  0
  1 15  1  0
  1 16  1  0
  2 17  1  0
  2 18  1  0
  3 19  1  1
  4 20  1  0
  4 21  1  0
  4 22  1  0
  5 23  1  1
  6 24  1  0
  9 25  1  0
  9 26  1  0
 10 27  1  0
 10 28  1  0
 12 29  1  0
 12 30  1  0
M  END
$$$$

     RDKit          3D

 30 29  0  0  0  0  0  0  0  0999 V2000
   -2.9457   -0.0650   -0.4196 C   0  0  0  0  0  0  0  0  0  0  0  0
   -2.1835    1.2201   -0.5280 C   0  0  0  0  0  0  0  0  0  0  0  0
   -0.6940    1.0269   -0.6682 C   0  0  2  0  0  0  0  0  0  0  0  0
   -0.4951    0.2267   -1.9309 C   0  0  0  0  0  0  0  0  0  0  0  0
   -0.0569    0.3619    0.5271 C   0  0  1  0  0  0  0  0  0  0  0  0
    1.3730    0.1985    0.3461 N   0  0  0  0  0  0  0  0  0  0  0  0
    1.9899   -1.0680    0.2651 C   0  0  0  0  0  0  0  0  0  0  0  0
    1.2611   -2.1028    0.3544 O   0  0  0  0  0  0  0  0  0  0  0  0
    3.4497   -1.2237    0.0804 C   0  0  0  0  0  0  0  0  0  0  0  0
    3.7999   -2.6284    0.0326 N   0  0  0  0  0  0  0  0  0  0  0  0
   -0.3754    1.0157    1.8160 C   0  0  0  0  0  0  0  0  0  0  0  0
   -1.6668    1.2978    2.3082 N   0  0  0  0  0  0  0  0  0  0  0  0
    0.5929    1.3670    2.5740 O   0  0  0  0  0  0  0  0  0  0  0  0
   -2.4326   -0.8832    0.0917 H   0  0  0  0  0  0  0  0  0  0  0  0
   -3.9081    0.0905    0.1497 H   0  0  0  0  0  0  0  0  0  0  0  0
   -3.2459   -0.4564   -1.4276 H   0  0  0  0  0  0  0  0  0  0  0  0
   -2.5099    1.6728   -1.5215 H   0  0  0  0  0  0  0  0  0  0  0  0
   -2.4742    1.9772    0.2249 H   0  0  0  0  0  0  0  0  0  0  0  0
   -0.2453    2.0328   -0.7912 H   0  0  0  0  0  0  0  0  0  0  0  0
   -0.8077   -0.8077   -1.8560 H   0  0  0  0  0  0  0  0  0  0  0  0
    0.5963    0.3159   -2.1860 H   0  0  0  0  0  0  0  0  0  0  0  0
   -1.0549    0.7166   -2.7450 H   0  0  0  0  0  0  0  0  0  0  0  0
   -0.4799   -0.6634    0.5782 H   0  0  0  0  0  0  0  0  0  0  0  0
    2.0130    1.0439    0.2674 H   0  0  0  0  0  0  0  0  0  0  0  0
    3.8155   -0.6820   -0.8235 H   0  0  0  0  0  0  0  0  0  0  0  0
    3.9850   -0.7802    0.9528 H   0  0  0  0  0  0  0  0  0  0  0  0
    4.0660   -2.8709   -0.9493 H   0  0  0  0  0  0  0  0  0  0  0  0
    2.9491   -3.1960    0.2739 H   0  0  0  0  0  0  0  0  0  0  0  0
   -2.4360    0.5953    2.3831 H   0  0  0  0  0  0  0  0  0  0  0  0
   -1.8797    2.2680    2.6212 H   0  0  0  0  0  0  0  0  0  0  0  0
  1  2  1  0
  2  3  1  0
  3  4  1  0
  3  5  1  0
  5  6  1  0
  6  7  1  0
  7  8  2  0
  7  9  1  0
  9 10  1  0
  5 11  1  0
 11 12  1  0
 11 13  2  0
  1 14  1  0
  1 15  1  0
  1 16  1  0
  2 17  1  0
  2 18  1  0
  3 19  1  6
  4 20  1  0
  4 21  1  0
  4 22  1  0
  5 23  1  1
  6 24  1  0
  9 25  1  0
  9 26  1  0
 10 27  1  0
 10 28  1  0
 12 29  1  0
 12 30  1  0
M  END
$$$$

     RDKit          3D

 30 29  0  0  0  0  0  0  0  0999 V2000
   -1.1496   -1.5518    1.3826 C   0  0  0  0  0  0  0  0  0  0  0  0
   -1.8004   -0.2418    1.1091 C   0  0  0  0  0  0  0  0  0  0  0  0
   -0.9297    0.8862    0.7286 C   0  0  2  0  0  0  0  0  0  0  0  0
   -1.8446    2.1017    0.5219 C   0  0  0  0  0  0  0  0  0  0  0  0
   -0.0206    0.7177   -0.4385 C   0  0  1  0  0  0  0  0  0  0  0  0
    0.9502   -0.3242   -0.3384 N   0  0  0  0  0  0  0  0  0  0  0  0
    2.3518   -0.0475   -0.1568 C   0  0  0  0  0  0  0  0  0  0  0  0
    2.6801    1.1575   -0.0904 O   0  0  0  0  0  0  0  0  0  0  0  0
    3.3729   -1.0954   -0.0506 C   0  0  0  0  0  0  0  0  0  0  0  0
    2.7859   -2.4175   -0.1521 N   0  0  0  0  0  0  0  0  0  0  0  0
   -0.7316    0.6926   -1.7520 C   0  0  0  0  0  0  0  0  0  0  0  0
   -1.7328    1.6009   -2.1502 N   0  0  0  0  0  0  0  0  0  0  0  0
   -0.4394   -0.2080   -2.6144 O   0  0  0  0  0  0  0  0  0  0  0  0
   -0.1513   -1.4044    1.7936 H   0  0  0  0  0  0  0  0  0  0  0  0
   -1.2258   -2.2596    0.5336 H   0  0  0  0  0  0  0  0  0  0  0  0
   -1.7426   -2.0590    2.2098 H   0  0  0  0  0  0  0  0  0  0  0  0
   -2.6785   -0.3472    0.4052 H   0  0  0  0  0  0  0  0  0  0  0  0
   -2.3167    0.0761    2.0692 H   0  0  0  0  0  0  0  0  0  0  0  0
   -0.3326    1.1627    1.6504 H   0  0  0  0  0  0  0  0  0  0  0  0
   -2.7567    1.8150   -0.0174 H   0  0  0  0  0  0  0  0  0  0  0  0
   -1.2648    2.9070    0.0769 H   0  0  0  0  0  0  0  0  0  0  0  0
   -2.2013    2.4392    1.5324 H   0  0  0  0  0  0  0  0  0  0  0  0
    0.5700    1.6916   -0.4633 H   0  0  0  0  0  0  0  0  0  0  0  0
    0.7297   -1.3394   -0.3984 H   0  0  0  0  0  0  0  0  0  0  0  0
    3.8827   -1.0490    0.9398 H   0  0  0  0  0  0  0  0  0  0  0  0
    4.1713   -0.9763   -0.8148 H   0  0  0  0  0  0  0  0  0  0  0  0
    3.5843   -3.0777   -0.3683 H   0  0  0  0  0  0  0  0  0  0  0  0
    2.4547   -2.7010    0.8020 H   0  0  0  0  0  0  0  0  0  0  0  0
   -2.6908    1.2541   -2.3298 H   0  0  0  0  0  0  0  0  0  0  0  0
   -1.5237    2.5976   -2.2672 H   0  0  0  0  0  0  0  0  0  0  0  0
  1  2  1  0
  2  3  1  0
  3  4  1  0
  3  5  1  0
  5  6  1  0
  6  7  1  0
  7  8  2  0
  7  9  1  0
  9 10  1  0
  5 11  1  0
 11 12  1  0
 11 13  2  0
  1 14  1  0
  1 15  1  0
  1 16  1  0
  2 17  1  0
  2 18  1  0
  3 19  1  1
  4 20  1  0
  4 21  1  0
  4 22  1  0
  5 23  1  6
  6 24  1  0
  9 25  1  0
  9 26  1  0
 10 27  1  0
 10 28  1  0
 12 29  1  0
 12 30  1  0
M  END
$$$$

     RDKit          3D

 30 29  0  0  0  0  0  0  0  0999 V2000
   -2.2186   -1.9510   -1.3310 C   0  0  0  0  0  0  0  0  0  0  0  0
   -1.1105   -1.3149   -0.5292 C   0  0  0  0  0  0  0  0  0  0  0  0
   -1.4380    0.1035   -0.1274 C   0  0  2  0  0  0  0  0  0  0  0  0
   -1.6744    1.0083   -1.2807 C   0  0  0  0  0  0  0  0  0  0  0  0
   -0.3177    0.5725    0.7846 C   0  0  1  0  0  0  0  0  0  0  0  0
    0.9659    0.5400    0.1225 N   0  0  0  0  0  0  0  0  0  0  0  0
    2.0256   -0.3266    0.5114 C   0  0  0  0  0  0  0  0  0  0  0  0
    1.8620   -1.1110    1.4741 O   0  0  0  0  0  0  0  0  0  0  0  0
    3.3090   -0.2819   -0.2366 C   0  0  0  0  0  0  0  0  0  0  0  0
    4.2479   -1.2264    0.3047 N   0  0  0  0  0  0  0  0  0  0  0  0
   -0.6087    1.8603    1.4257 C   0  0  0  0  0  0  0  0  0  0  0  0
   -1.8258    2.0281    2.1066 N   0  0  0  0  0  0  0  0  0  0  0  0
    0.2069    2.7916    1.3695 O   0  0  0  0  0  0  0  0  0  0  0  0
   -2.1133   -1.7011   -2.4228 H   0  0  0  0  0  0  0  0  0  0  0  0
   -2.1550   -3.0477   -1.1761 H   0  0  0  0  0  0  0  0  0  0  0  0
   -3.1912   -1.6226   -0.9299 H   0  0  0  0  0  0  0  0  0  0  0  0
   -0.9175   -1.9215    0.3720 H   0  0  0  0  0  0  0  0  0  0  0  0
   -0.1895   -1.3555   -1.1470 H   0  0  0  0  0  0  0  0  0  0  0  0
   -2.3573    0.0805    0.4948 H   0  0  0  0  0  0  0  0  0  0  0  0
   -1.6477    2.0583   -0.9216 H   0  0  0  0  0  0  0  0  0  0  0  0
   -0.9463    0.8906   -2.1078 H   0  0  0  0  0  0  0  0  0  0  0  0
   -2.7289    0.8510   -1.6450 H   0  0  0  0  0  0  0  0  0  0  0  0
   -0.2777   -0.1931    1.6155 H   0  0  0  0  0  0  0  0  0  0  0  0
    1.1442    1.1854   -0.6934 H   0  0  0  0  0  0  0  0  0  0  0  0
    3.0967   -0.5721   -1.2846 H   0  0  0  0  0  0  0  0  0  0  0  0
    3.7191    0.7517   -0.2724 H   0  0  0  0  0  0  0  0  0  0  0  0
    5.0255   -1.3334   -0.3956 H   0  0  0  0  0  0  0  0  0  0  0  0
    4.6589   -0.9217    1.2000 H   0  0  0  0  0  0  0  0  0  0  0  0
   -2.2285    1.2149    2.6484 H   0  0  0  0  0  0  0  0  0  0  0  0
   -2.3149    2.9436    2.0711 H   0  0  0  0  0  0  0  0  0  0  0  0
  1  2  1  0
  2  3  1  0
  3  4  1  0
  3  5  1  0
  5  6  1  0
  6  7  1  0
  7  8  2  0
  7  9  1  0
  9 10  1  0
  5 11  1  0
 11 12  1  0
 11 13  2  0
  1 14  1  0
  1 15  1  0
  1 16  1  0
  2 17  1  0
  2 18  1  0
  3 19  1  1
  4 20  1  0
  4 21  1  0
  4 22  1  0
  5 23  1  1
  6 24  1  0
  9 25  1  0
  9 26  1  0
 10 27  1  0
 10 28  1  0
 12 29  1  0
 12 30  1  0
M  END
$$$$

     RDKit          3D

 30 29  0  0  0  0  0  0  0  0999 V2000
   -2.6467   -1.7518    0.5667 C   0  0  0  0  0  0  0  0  0  0  0  0
   -1.7826   -0.7606   -0.2207 C   0  0  0  0  0  0  0  0  0  0  0  0
   -0.8735   -0.0984    0.7612 C   0  0  2  0  0  0  0  0  0  0  0  0
   -1.7145    0.6168    1.7963 C   0  0  0  0  0  0  0  0  0  0  0  0
    0.1500    0.8009    0.1331 C   0  0  1  0  0  0  0  0  0  0  0  0
    0.9581   -0.0122   -0.7591 N   0  0  0  0  0  0  0  0  0  0  0  0
    2.3389   -0.2191   -0.5356 C   0  0  0  0  0  0  0  0  0  0  0  0
    2.8500    0.3289    0.4706 O   0  0  0  0  0  0  0  0  0  0  0  0
    3.1005   -1.0633   -1.4917 C   0  0  0  0  0  0  0  0  0  0  0  0
    4.4836   -1.1818   -1.1365 N   0  0  0  0  0  0  0  0  0  0  0  0
   -0.4159    1.9300   -0.6067 C   0  0  0  0  0  0  0  0  0  0  0  0
   -1.2398    2.8403    0.1044 N   0  0  0  0  0  0  0  0  0  0  0  0
   -0.2323    2.1606   -1.8220 O   0  0  0  0  0  0  0  0  0  0  0  0
   -2.1815   -2.0010    1.5407 H   0  0  0  0  0  0  0  0  0  0  0  0
   -2.7516   -2.7091    0.0051 H   0  0  0  0  0  0  0  0  0  0  0  0
   -3.6481   -1.3463    0.7767 H   0  0  0  0  0  0  0  0  0  0  0  0
   -1.2714   -1.3309   -1.0031 H   0  0  0  0  0  0  0  0  0  0  0  0
   -2.5115   -0.0374   -0.6743 H   0  0  0  0  0  0  0  0  0  0  0  0
   -0.3182   -0.9003    1.2994 H   0  0  0  0  0  0  0  0  0  0  0  0
   -1.3027    1.5723    2.1176 H   0  0  0  0  0  0  0  0  0  0  0  0
   -1.8378   -0.0162    2.7192 H   0  0  0  0  0  0  0  0  0  0  0  0
   -2.7586    0.7531    1.4022 H   0  0  0  0  0  0  0  0  0  0  0  0
    0.7750    1.2072    0.9720 H   0  0  0  0  0  0  0  0  0  0  0  0
    0.4706   -0.4379   -1.5756 H   0  0  0  0  0  0  0  0  0  0  0  0
    2.6768   -2.0962   -1.5488 H   0  0  0  0  0  0  0  0  0  0  0  0
    3.0216   -0.6144   -2.4910 H   0  0  0  0  0  0  0  0  0  0  0  0
    4.6587   -1.6618   -0.2454 H   0  0  0  0  0  0  0  0  0  0  0  0
    5.0494   -0.3463   -1.3105 H   0  0  0  0  0  0  0  0  0  0  0  0
   -0.7802    3.5322    0.7269 H   0  0  0  0  0  0  0  0  0  0  0  0
   -2.2662    2.8427    0.0287 H   0  0  0  0  0  0  0  0  0  0  0  0
  1  2  1  0
  2  3  1  0
  3  4  1  0
  3  5  1  0
  5  6  1  0
  6  7  1  0
  7  8  2  0
  7  9  1  0
  9 10  1  0
  5 11  1  0
 11 12  1  0
 11 13  2  0
  1 14  1  0
  1 15  1  0
  1 16  1  0
  2 17  1  0
  2 18  1  0
  3 19  1  1
  4 20  1  0
  4 21  1  0
  4 22  1  0
  5 23  1  1
  6 24  1  0
  9 25  1  0
  9 26  1  0
 10 27  1  0
 10 28  1  0
 12 29  1  0
 12 30  1  0
M  END
$$$$

     RDKit          3D

 30 29  0  0  0  0  0  0  0  0999 V2000
   -2.9527    1.5661    0.5769 C   0  0  0  0  0  0  0  0  0  0  0  0
   -2.3698    0.1439    0.4797 C   0  0  0  0  0  0  0  0  0  0  0  0
   -1.0013    0.3014   -0.1106 C   0  0  2  0  0  0  0  0  0  0  0  0
   -1.1056    0.9621   -1.4989 C   0  0  0  0  0  0  0  0  0  0  0  0
   -0.2185   -0.9463   -0.2945 C   0  0  1  0  0  0  0  0  0  0  0  0
    1.0611   -0.5674   -0.8720 N   0  0  0  0  0  0  0  0  0  0  0  0
    2.0928   -0.0828   -0.0492 C   0  0  0  0  0  0  0  0  0  0  0  0
    2.0318    0.0741    1.1853 O   0  0  0  0  0  0  0  0  0  0  0  0
    3.4037    0.2895   -0.6874 C   0  0  0  0  0  0  0  0  0  0  0  0
    4.3571    0.7684    0.2873 N   0  0  0  0  0  0  0  0  0  0  0  0
   -0.1175   -1.8470    0.8535 C   0  0  0  0  0  0  0  0  0  0  0  0
   -1.2714   -2.2831    1.5437 N   0  0  0  0  0  0  0  0  0  0  0  0
    0.9976   -2.2489    1.2441 O   0  0  0  0  0  0  0  0  0  0  0  0
   -3.7236    1.5478    1.3604 H   0  0  0  0  0  0  0  0  0  0  0  0
   -3.4197    1.8810   -0.3560 H   0  0  0  0  0  0  0  0  0  0  0  0
   -2.1673    2.2867    0.8438 H   0  0  0  0  0  0  0  0  0  0  0  0
   -3.0708   -0.4408   -0.1079 H   0  0  0  0  0  0  0  0  0  0  0  0
   -2.2605   -0.1637    1.5422 H   0  0  0  0  0  0  0  0  0  0  0  0
   -0.4647    1.0477    0.5199 H   0  0  0  0  0  0  0  0  0  0  0  0
   -0.6829    0.3148   -2.2935 H   0  0  0  0  0  0  0  0  0  0  0  0
   -2.1762    1.1138   -1.7787 H   0  0  0  0  0  0  0  0  0  0  0  0
   -0.5788    1.9191   -1.5491 H   0  0  0  0  0  0  0  0  0  0  0  0
   -0.7003   -1.5947   -1.1084 H   0  0  0  0  0  0  0  0  0  0  0  0
    1.2597   -0.6379   -1.8964 H   0  0  0  0  0  0  0  0  0  0  0  0
    3.1979    1.1026   -1.4011 H   0  0  0  0  0  0  0  0  0  0  0  0
    3.8135   -0.6185   -1.1729 H   0  0  0  0  0  0  0  0  0  0  0  0
    5.2917    0.7325   -0.1288 H   0  0  0  0  0  0  0  0  0  0  0  0
    4.2600    0.3018    1.2125 H   0  0  0  0  0  0  0  0  0  0  0  0
   -2.1666   -2.5516    1.0580 H   0  0  0  0  0  0  0  0  0  0  0  0
   -1.3188   -2.3707    2.5980 H   0  0  0  0  0  0  0  0  0  0  0  0
  1  2  1  0
  2  3  1  0
  3  4  1  0
  3  5  1  0
  5  6  1  0
  6  7  1  0
  7  8  2  0
  7  9  1  0
  9 10  1  0
  5 11  1  0
 11 12  1  0
 11 13  2  0
  1 14  1  0
  1 15  1  0
  1 16  1  0
  2 17  1  0
  2 18  1  0
  3 19  1  1
  4 20  1  0
  4 21  1  0
  4 22  1  0
  5 23  1  6
  6 24  1  0
  9 25  1  0
  9 26  1  0
 10 27  1  0
 10 28  1  0
 12 29  1  0
 12 30  1  0
M  END
$$$$

     RDKit          3D

 30 29  0  0  0  0  0  0  0  0999 V2000
   -3.4620    0.9283    0.7961 C   0  0  0  0  0  0  0  0  0  0  0  0
   -2.4254    0.0950    0.0566 C   0  0  0  0  0  0  0  0  0  0  0  0
   -1.0760    0.1933    0.6716 C   0  0  2  0  0  0  0  0  0  0  0  0
   -0.5536    1.6204    0.7057 C   0  0  0  0  0  0  0  0  0  0  0  0
   -0.0842   -0.5964   -0.1688 C   0  0  1  0  0  0  0  0  0  0  0  0
    1.2436   -0.4753    0.4531 N   0  0  0  0  0  0  0  0  0  0  0  0
    2.3316    0.0820   -0.2667 C   0  0  0  0  0  0  0  0  0  0  0  0
    2.1646    0.4790   -1.4547 O   0  0  0  0  0  0  0  0  0  0  0  0
    3.6451    0.1792    0.4133 C   0  0  0  0  0  0  0  0  0  0  0  0
    4.6187    0.7717   -0.4829 N   0  0  0  0  0  0  0  0  0  0  0  0
   -0.4095   -2.0176   -0.3236 C   0  0  0  0  0  0  0  0  0  0  0  0
   -1.5751   -2.5437   -0.9511 N   0  0  0  0  0  0  0  0  0  0  0  0
    0.4377   -2.8630    0.1482 O   0  0  0  0  0  0  0  0  0  0  0  0
   -4.3965    0.8619    0.1941 H   0  0  0  0  0  0  0  0  0  0  0  0
   -3.6534    0.5511    1.8129 H   0  0  0  0  0  0  0  0  0  0  0  0
   -3.1614    1.9959    0.7877 H   0  0  0  0  0  0  0  0  0  0  0  0
   -2.8028   -0.9458    0.0944 H   0  0  0  0  0  0  0  0  0  0  0  0
   -2.4395    0.4197   -0.9961 H   0  0  0  0  0  0  0  0  0  0  0  0
   -1.0452   -0.2059    1.7028 H   0  0  0  0  0  0  0  0  0  0  0  0
   -1.1887    2.3302    0.1699 H   0  0  0  0  0  0  0  0  0  0  0  0
    0.4801    1.7019    0.3222 H   0  0  0  0  0  0  0  0  0  0  0  0
   -0.5042    1.9808    1.7748 H   0  0  0  0  0  0  0  0  0  0  0  0
   -0.0245   -0.1485   -1.1785 H   0  0  0  0  0  0  0  0  0  0  0  0
    1.3132   -0.8217    1.4319 H   0  0  0  0  0  0  0  0  0  0  0  0
    4.0026   -0.8559    0.6297 H   0  0  0  0  0  0  0  0  0  0  0  0
    3.5357    0.8103    1.2980 H   0  0  0  0  0  0  0  0  0  0  0  0
    4.7503    0.1951   -1.3436 H   0  0  0  0  0  0  0  0  0  0  0  0
    4.2991    1.7413   -0.7596 H   0  0  0  0  0  0  0  0  0  0  0  0
   -2.2344   -3.2027   -0.4848 H   0  0  0  0  0  0  0  0  0  0  0  0
   -1.7858   -2.2605   -1.9243 H   0  0  0  0  0  0  0  0  0  0  0  0
  1  2  1  0
  2  3  1  0
  3  4  1  0
  3  5  1  0
  5  6  1  0
  6  7  1  0
  7  8  2  0
  7  9  1  0
  9 10  1  0
  5 11  1  0
 11 12  1  0
 11 13  2  0
  1 14  1  0
  1 15  1  0
  1 16  1  0
  2 17  1  0
  2 18  1  0
  3 19  1  1
  4 20  1  0
  4 21  1  0
  4 22  1  0
  5 23  1  6
  6 24  1  0
  9 25  1  0
  9 26  1  0
 10 27  1  0
 10 28  1  0
 12 29  1  0
 12 30  1  0
M  END
$$$$

     RDKit          3D

 30 29  0  0  0  0  0  0  0  0999 V2000
   -1.5453    2.2654   -0.6507 C   0  0  0  0  0  0  0  0  0  0  0  0
   -2.1454    1.2941    0.2872 C   0  0  0  0  0  0  0  0  0  0  0  0
   -1.7667   -0.1281   -0.0688 C   0  0  2  0  0  0  0  0  0  0  0  0
   -2.3860   -1.1028    0.8530 C   0  0  0  0  0  0  0  0  0  0  0  0
   -0.4696   -0.2921   -0.6916 C   0  0  1  0  0  0  0  0  0  0  0  0
    0.6448    0.2772    0.0274 N   0  0  0  0  0  0  0  0  0  0  0  0
    1.9945    0.0839   -0.3951 C   0  0  0  0  0  0  0  0  0  0  0  0
    2.3445   -0.5970   -1.3859 O   0  0  0  0  0  0  0  0  0  0  0  0
    3.0776    0.7805    0.4393 C   0  0  0  0  0  0  0  0  0  0  0  0
    4.3910    0.4597   -0.0224 N   0  0  0  0  0  0  0  0  0  0  0  0
   -0.0701   -1.7992   -0.6980 C   0  0  0  0  0  0  0  0  0  0  0  0
    0.0202   -2.5641    0.4739 N   0  0  0  0  0  0  0  0  0  0  0  0
    0.1845   -2.2901   -1.8493 O   0  0  0  0  0  0  0  0  0  0  0  0
   -1.2136    3.2357   -0.1539 H   0  0  0  0  0  0  0  0  0  0  0  0
   -0.7349    1.7886   -1.2233 H   0  0  0  0  0  0  0  0  0  0  0  0
   -2.3839    2.5683   -1.3792 H   0  0  0  0  0  0  0  0  0  0  0  0
   -3.2523    1.3456    0.4230 H   0  0  0  0  0  0  0  0  0  0  0  0
   -1.7297    1.5104    1.3431 H   0  0  0  0  0  0  0  0  0  0  0  0
   -2.5241   -0.2570   -1.0220 H   0  0  0  0  0  0  0  0  0  0  0  0
   -3.5543   -1.0592    0.7330 H   0  0  0  0  0  0  0  0  0  0  0  0
   -2.2560   -0.8861    1.9055 H   0  0  0  0  0  0  0  0  0  0  0  0
   -2.2014   -2.1731    0.6443 H   0  0  0  0  0  0  0  0  0  0  0  0
   -0.3893   -0.0669   -1.7613 H   0  0  0  0  0  0  0  0  0  0  0  0
    0.5073    0.8803    0.8928 H   0  0  0  0  0  0  0  0  0  0  0  0
    2.9296    1.9002    0.1551 H   0  0  0  0  0  0  0  0  0  0  0  0
    2.9529    0.6345    1.5014 H   0  0  0  0  0  0  0  0  0  0  0  0
    4.4590   -0.0385   -0.9147 H   0  0  0  0  0  0  0  0  0  0  0  0
    4.9674   -0.0245    0.7579 H   0  0  0  0  0  0  0  0  0  0  0  0
    0.2747   -3.5712    0.3732 H   0  0  0  0  0  0  0  0  0  0  0  0
   -0.1256   -2.1744    1.4059 H   0  0  0  0  0  0  0  0  0  0  0  0
  1  2  1  0
  2  3  1  0
  3  4  1  0
  3  5  1  0
  5  6  1  0
  6  7  1  0
  7  8  2  0
  7  9  1  0
  9 10  1  0
  5 11  1  0
 11 12  1  0
 11 13  2  0
  1 14  1  0
  1 15  1  0
  1 16  1  0
  2 17  1  0
  2 18  1  0
  3 19  1  6
  4 20  1  0
  4 21  1  0
  4 22  1  0
  5 23  1  6
  6 24  1  0
  9 25  1  0
  9 26  1  0
 10 27  1  0
 10 28  1  0
 12 29  1  0
 12 30  1  0
M  END
$$$$
