
     RDKit          3D

 19 19  0  0  0  0  0  0  0  0999 V2000
    3.3875    1.0201    0.3646 N   0  0  0  0  0  0  0  0  0  0  0  0
    2.0031    0.6459    0.2091 C   0  0  0  0  0  0  0  0  0  0  0  0
    1.6584   -0.6496    0.0838 N   0  0  0  0  0  0  0  0  0  0  0  0
    0.3873   -1.0657   -0.0641 C   0  0  0  0  0  0  0  0  0  0  0  0
    0.0240   -2.4332   -0.1963 N   0  0  0  0  0  0  0  0  0  0  0  0
   -0.5871   -0.0895   -0.0843 C   0  0  0  0  0  0  0  0  0  0  0  0
   -1.9705   -0.4673   -0.2398 C   0  0  0  0  0  0  0  0  0  0  0  0
   -2.9007    0.3767   -0.2654 O   0  0  0  0  0  0  0  0  0  0  0  0
   -2.3403   -1.8057   -0.3705 O   0  0  0  0  0  0  0  0  0  0  0  0
   -0.2779    1.2586    0.0415 C   0  0  0  0  0  0  0  0  0  0  0  0
   -1.2955    2.2481    0.0184 N   0  0  0  0  0  0  0  0  0  0  0  0
    1.0297    1.5515    0.1840 N   0  0  0  0  0  0  0  0  0  0  0  0
    4.1140    0.2969    0.1806 H   0  0  0  0  0  0  0  0  0  0  0  0
    3.5809    1.9859    0.6501 H   0  0  0  0  0  0  0  0  0  0  0  0
   -0.3621   -2.8243   -1.0871 H   0  0  0  0  0  0  0  0  0  0  0  0
    0.1242   -3.1181    0.5899 H   0  0  0  0  0  0  0  0  0  0  0  0
   -3.2252   -2.1602   -0.0237 H   0  0  0  0  0  0  0  0  0  0  0  0
   -1.8558    2.4142   -0.8417 H   0  0  0  0  0  0  0  0  0  0  0  0
   -1.4941    2.8156    0.8510 H   0  0  0  0  0  0  0  0  0  0  0  0
  1  2  1  0
  2  3  2  0
  3  4  1  0
  4  5  1  0
  4  6  2  0
  6  7  1  0
  7  8  2  0
  7  9  1  0
  6 10  1  0
 10 11  1  0
 10 12  2  0
 12  2  1  0
  1 13  1  0
  1 14  1  0
  5 15  1  0
  5 16  1  0
  9 17  1  0
 11 18  1  0
 11 19  1  0
M  END
$$$$

     RDKit          3D

 19 19  0  0  0  0  0  0  0  0999 V2000
    3.5495    0.1487   -0.2303 N   0  0  0  0  0  0  0  0  0  0  0  0
    2.1206    0.0802   -0.1455 C   0  0  0  0  0  0  0  0  0  0  0  0
    1.4469   -1.0782   -0.2034 N   0  0  0  0  0  0  0  0  0  0  0  0
    0.0962   -1.1166   -0.1209 C   0  0  0  0  0  0  0  0  0  0  0  0
   -0.6428   -2.3156   -0.1781 N   0  0  0  0  0  0  0  0  0  0  0  0
   -0.6413    0.0528    0.0276 C   0  0  0  0  0  0  0  0  0  0  0  0
   -2.0860    0.0335    0.1177 C   0  0  0  0  0  0  0  0  0  0  0  0
   -2.6931    1.1151    0.2503 O   0  0  0  0  0  0  0  0  0  0  0  0
   -2.7901   -1.1488    0.0597 O   0  0  0  0  0  0  0  0  0  0  0  0
    0.0756    1.2291    0.0843 C   0  0  0  0  0  0  0  0  0  0  0  0
   -0.6583    2.4340    0.2357 N   0  0  0  0  0  0  0  0  0  0  0  0
    1.4328    1.2249   -0.0023 N   0  0  0  0  0  0  0  0  0  0  0  0
    4.0630   -0.4182   -0.9364 H   0  0  0  0  0  0  0  0  0  0  0  0
    4.1246    0.7540    0.3954 H   0  0  0  0  0  0  0  0  0  0  0  0
   -0.7375   -2.7997   -1.0833 H   0  0  0  0  0  0  0  0  0  0  0  0
   -1.0857   -2.7121    0.6631 H   0  0  0  0  0  0  0  0  0  0  0  0
   -3.6969   -1.2574    0.5007 H   0  0  0  0  0  0  0  0  0  0  0  0
   -0.6248    2.9945    1.1099 H   0  0  0  0  0  0  0  0  0  0  0  0
   -1.2528    2.7798   -0.5442 H   0  0  0  0  0  0  0  0  0  0  0  0
  1  2  1  0
  2  3  2  0
  3  4  1  0
  4  5  1  0
  4  6  2  0
  6  7  1  0
  7  8  2  0
  7  9  1  0
  6 10  1  0
 10 11  1  0
 10 12  2  0
 12  2  1  0
  1 13  1  0
  1 14  1  0
  5 15  1  0
  5 16  1  0
  9 17  1  0
 11 18  1  0
 11 19  1  0
M  END
$$$$

     RDKit          3D

 19 19  0  0  0  0  0  0  0  0999 V2000
    3.3131   -0.9193    0.8718 N   0  0  0  0  0  0  0  0  0  0  0  0
    1.9896   -0.5488    0.5234 C   0  0  0  0  0  0  0  0  0  0  0  0
    1.4996    0.6957    0.6712 N   0  0  0  0  0  0  0  0  0  0  0  0
    0.2418    1.0290    0.3354 C   0  0  0  0  0  0  0  0  0  0  0  0
   -0.2557    2.3484    0.4994 N   0  0  0  0  0  0  0  0  0  0  0  0
   -0.5985    0.0719   -0.1839 C   0  0  0  0  0  0  0  0  0  0  0  0
   -1.9599    0.4408   -0.5453 C   0  0  0  0  0  0  0  0  0  0  0  0
   -2.6952   -0.4622   -1.0160 O   0  0  0  0  0  0  0  0  0  0  0  0
   -2.4334    1.7179   -0.3838 O   0  0  0  0  0  0  0  0  0  0  0  0
   -0.0989   -1.2014   -0.3357 C   0  0  0  0  0  0  0  0  0  0  0  0
   -0.9614   -2.1904   -0.8703 N   0  0  0  0  0  0  0  0  0  0  0  0
    1.1686   -1.4800    0.0170 N   0  0  0  0  0  0  0  0  0  0  0  0
    3.5129   -1.1013    1.8748 H   0  0  0  0  0  0  0  0  0  0  0  0
    4.0945   -1.0210    0.1958 H   0  0  0  0  0  0  0  0  0  0  0  0
   -0.7459    2.6853    1.3528 H   0  0  0  0  0  0  0  0  0  0  0  0
   -0.1282    3.0346   -0.2780 H   0  0  0  0  0  0  0  0  0  0  0  0
   -3.3972    1.9983   -0.5939 H   0  0  0  0  0  0  0  0  0  0  0  0
   -1.6509   -2.6671   -0.2599 H   0  0  0  0  0  0  0  0  0  0  0  0
   -0.8948   -2.4303   -1.8747 H   0  0  0  0  0  0  0  0  0  0  0  0
  1  2  1  0
  2  3  2  0
  3  4  1  0
  4  5  1  0
  4  6  2  0
  6  7  1  0
  7  8  2  0
  7  9  1  0
  6 10  1  0
 10 11  1  0
 10 12  2  0
 12  2  1  0
  1 13  1  0
  1 14  1  0
  5 15  1  0
  5 16  1  0
  9 17  1  0
 11 18  1  0
 11 19  1  0
M  END
$$$$

     RDKit          3D

 19 19  0  0  0  0  0  0  0  0999 V2000
   -3.2346   -1.2736   -0.7636 N   0  0  0  0  0  0  0  0  0  0  0  0
   -1.9611   -0.7148   -0.4819 C   0  0  0  0  0  0  0  0  0  0  0  0
   -1.6235    0.5364   -0.8323 N   0  0  0  0  0  0  0  0  0  0  0  0
   -0.3914    1.0485   -0.5487 C   0  0  0  0  0  0  0  0  0  0  0  0
   -0.0377    2.3756   -0.9220 N   0  0  0  0  0  0  0  0  0  0  0  0
    0.5467    0.2866    0.1112 C   0  0  0  0  0  0  0  0  0  0  0  0
    1.8717    0.8328    0.4180 C   0  0  0  0  0  0  0  0  0  0  0  0
    2.1999    2.0027    0.0952 O   0  0  0  0  0  0  0  0  0  0  0  0
    2.8317    0.0814    1.0824 O   0  0  0  0  0  0  0  0  0  0  0  0
    0.1811   -0.9928    0.4617 C   0  0  0  0  0  0  0  0  0  0  0  0
    1.1425   -1.7854    1.1424 N   0  0  0  0  0  0  0  0  0  0  0  0
   -1.0546   -1.4712    0.1636 N   0  0  0  0  0  0  0  0  0  0  0  0
   -3.3418   -2.2693   -1.0102 H   0  0  0  0  0  0  0  0  0  0  0  0
   -4.1019   -0.6981   -0.7308 H   0  0  0  0  0  0  0  0  0  0  0  0
    0.1766    3.1273   -0.2300 H   0  0  0  0  0  0  0  0  0  0  0  0
    0.0246    2.6631   -1.9286 H   0  0  0  0  0  0  0  0  0  0  0  0
    3.7701    0.4163    1.2458 H   0  0  0  0  0  0  0  0  0  0  0  0
    1.7766   -2.3648    0.5636 H   0  0  0  0  0  0  0  0  0  0  0  0
    1.2251   -1.8006    2.1640 H   0  0  0  0  0  0  0  0  0  0  0  0
  1  2  1  0
  2  3  2  0
  3  4  1  0
  4  5  1  0
  4  6  2  0
  6  7  1  0
  7  8  2  0
  7  9  1  0
  6 10  1  0
 10 11  1  0
 10 12  2  0
 12  2  1  0
  1 13  1  0
  1 14  1  0
  5 15  1  0
  5 16  1  0
  9 17  1  0
 11 18  1  0
 11 19  1  0
M  END
$$$$

     RDKit          3D

 19 19  0  0  0  0  0  0  0  0999 V2000
   -2.0238   -2.8846    0.1659 N   0  0  0  0  0  0  0  0  0  0  0  0
   -1.2434   -1.6768    0.0994 C   0  0  0  0  0  0  0  0  0  0  0  0
   -1.8337   -0.4765    0.1070 N   0  0  0  0  0  0  0  0  0  0  0  0
   -1.0993    0.6416    0.0448 C   0  0  0  0  0  0  0  0  0  0  0  0
   -1.7591    1.9033    0.0549 N   0  0  0  0  0  0  0  0  0  0  0  0
    0.2633    0.5388   -0.0267 C   0  0  0  0  0  0  0  0  0  0  0  0
    1.1105    1.7161   -0.0962 C   0  0  0  0  0  0  0  0  0  0  0  0
    0.5642    2.8490   -0.0896 O   0  0  0  0  0  0  0  0  0  0  0  0
    2.4752    1.6629   -0.1688 O   0  0  0  0  0  0  0  0  0  0  0  0
    0.9085   -0.7014   -0.0365 C   0  0  0  0  0  0  0  0  0  0  0  0
    2.3214   -0.7661   -0.1114 N   0  0  0  0  0  0  0  0  0  0  0  0
    0.0940   -1.7674    0.0290 N   0  0  0  0  0  0  0  0  0  0  0  0
   -2.7344   -3.0236    0.9026 H   0  0  0  0  0  0  0  0  0  0  0  0
   -1.8379   -3.6092   -0.5623 H   0  0  0  0  0  0  0  0  0  0  0  0
   -2.3512    2.1854    0.8849 H   0  0  0  0  0  0  0  0  0  0  0  0
   -1.6522    2.5543   -0.7727 H   0  0  0  0  0  0  0  0  0  0  0  0
    3.1016    2.4630   -0.0487 H   0  0  0  0  0  0  0  0  0  0  0  0
    2.7313   -1.0523   -1.0472 H   0  0  0  0  0  0  0  0  0  0  0  0
    2.9649   -0.5564    0.6715 H   0  0  0  0  0  0  0  0  0  0  0  0
  1  2  1  0
  2  3  2  0
  3  4  1  0
  4  5  1  0
  4  6  2  0
  6  7  1  0
  7  8  2  0
  7  9  1  0
  6 10  1  0
 10 11  1  0
 10 12  2  0
 12  2  1  0
  1 13  1  0
  1 14  1  0
  5 15  1  0
  5 16  1  0
  9 17  1  0
 11 18  1  0
 11 19  1  0
M  END
$$$$

     RDKit          3D

 19 19  0  0  0  0  0  0  0  0999 V2000
    3.5533   -0.3085   -0.0945 N   0  0  0  0  0  0  0  0  0  0  0  0
    2.1307   -0.1897   -0.0682 C   0  0  0  0  0  0  0  0  0  0  0  0
    1.5091    0.8887    0.4330 N   0  0  0  0  0  0  0  0  0  0  0  0
    0.1557    0.9920    0.4533 C   0  0  0  0  0  0  0  0  0  0  0  0
   -0.5105    2.1310    0.9825 N   0  0  0  0  0  0  0  0  0  0  0  0
   -0.6270   -0.0200   -0.0462 C   0  0  0  0  0  0  0  0  0  0  0  0
   -2.0742    0.1073   -0.0164 C   0  0  0  0  0  0  0  0  0  0  0  0
   -2.8097   -0.8176   -0.4734 O   0  0  0  0  0  0  0  0  0  0  0  0
   -2.7295    1.2146    0.4979 O   0  0  0  0  0  0  0  0  0  0  0  0
    0.0031   -1.1273   -0.5611 C   0  0  0  0  0  0  0  0  0  0  0  0
   -0.8014   -2.1631   -1.0725 N   0  0  0  0  0  0  0  0  0  0  0  0
    1.3651   -1.1809   -0.5575 N   0  0  0  0  0  0  0  0  0  0  0  0
    4.1133    0.5521   -0.2466 H   0  0  0  0  0  0  0  0  0  0  0  0
    4.0549   -1.2143    0.0313 H   0  0  0  0  0  0  0  0  0  0  0  0
   -0.6680    2.2554    1.9844 H   0  0  0  0  0  0  0  0  0  0  0  0
   -0.8332    2.8409    0.2819 H   0  0  0  0  0  0  0  0  0  0  0  0
   -3.6324    1.1443    0.9917 H   0  0  0  0  0  0  0  0  0  0  0  0
   -1.4068   -2.0183   -1.9100 H   0  0  0  0  0  0  0  0  0  0  0  0
   -0.7928   -3.0867   -0.6096 H   0  0  0  0  0  0  0  0  0  0  0  0
  1  2  1  0
  2  3  2  0
  3  4  1  0
  4  5  1  0
  4  6  2  0
  6  7  1  0
  7  8  2  0
  7  9  1  0
  6 10  1  0
 10 11  1  0
 10 12  2  0
 12  2  1  0
  1 13  1  0
  1 14  1  0
  5 15  1  0
  5 16  1  0
  9 17  1  0
 11 18  1  0
 11 19  1  0
M  END
$$$$

     RDKit          3D

 19 19  0  0  0  0  0  0  0  0999 V2000
    3.5332   -0.3623    0.0986 N   0  0  0  0  0  0  0  0  0  0  0  0
    2.1167   -0.1976    0.0469 C   0  0  0  0  0  0  0  0  0  0  0  0
    1.5602    1.0436    0.0661 N   0  0  0  0  0  0  0  0  0  0  0  0
    0.2286    1.2147    0.0181 C   0  0  0  0  0  0  0  0  0  0  0  0
   -0.3098    2.5319    0.0406 N   0  0  0  0  0  0  0  0  0  0  0  0
   -0.6328    0.1458   -0.0526 C   0  0  0  0  0  0  0  0  0  0  0  0
   -2.0622    0.3356   -0.1039 C   0  0  0  0  0  0  0  0  0  0  0  0
   -2.5393    1.4886   -0.0845 O   0  0  0  0  0  0  0  0  0  0  0  0
   -2.9465   -0.7267   -0.1753 O   0  0  0  0  0  0  0  0  0  0  0  0
   -0.0644   -1.1245   -0.0723 C   0  0  0  0  0  0  0  0  0  0  0  0
   -0.9129   -2.2552   -0.1445 N   0  0  0  0  0  0  0  0  0  0  0  0
    1.2743   -1.2423   -0.0222 N   0  0  0  0  0  0  0  0  0  0  0  0
    3.9566   -0.7808    0.9513 H   0  0  0  0  0  0  0  0  0  0  0  0
    4.1193   -0.0657   -0.7072 H   0  0  0  0  0  0  0  0  0  0  0  0
   -0.4263    3.1209   -0.8099 H   0  0  0  0  0  0  0  0  0  0  0  0
   -0.5953    2.9025    0.9745 H   0  0  0  0  0  0  0  0  0  0  0  0
   -3.8598   -0.7080    0.3011 H   0  0  0  0  0  0  0  0  0  0  0  0
   -1.4354   -2.5358    0.7016 H   0  0  0  0  0  0  0  0  0  0  0  0
   -1.0042   -2.7848   -1.0266 H   0  0  0  0  0  0  0  0  0  0  0  0
  1  2  1  0
  2  3  2  0
  3  4  1  0
  4  5  1  0
  4  6  2  0
  6  7  1  0
  7  8  2  0
  7  9  1  0
  6 10  1  0
 10 11  1  0
 10 12  2  0
 12  2  1  0
  1 13  1  0
  1 14  1  0
  5 15  1  0
  5 16  1  0
  9 17  1  0
 11 18  1  0
 11 19  1  0
M  END
$$$$

     RDKit          3D

 19 19  0  0  0  0  0  0  0  0999 V2000
    3.4113   -0.9599   -0.4985 N   0  0  0  0  0  0  0  0  0  0  0  0
    2.0427   -0.6013   -0.3050 C   0  0  0  0  0  0  0  0  0  0  0  0
    1.6508    0.6802   -0.1726 N   0  0  0  0  0  0  0  0  0  0  0  0
    0.3659    1.0368    0.0104 C   0  0  0  0  0  0  0  0  0  0  0  0
   -0.0197    2.4078    0.1478 N   0  0  0  0  0  0  0  0  0  0  0  0
   -0.6333    0.0871    0.0725 C   0  0  0  0  0  0  0  0  0  0  0  0
   -2.0303    0.4579    0.2703 C   0  0  0  0  0  0  0  0  0  0  0  0
   -2.8909   -0.4380    0.3187 O   0  0  0  0  0  0  0  0  0  0  0  0
   -2.4520    1.7687    0.4083 O   0  0  0  0  0  0  0  0  0  0  0  0
   -0.2306   -1.2243   -0.0632 C   0  0  0  0  0  0  0  0  0  0  0  0
   -1.2527   -2.2166   -0.0010 N   0  0  0  0  0  0  0  0  0  0  0  0
    1.0687   -1.5290   -0.2446 N   0  0  0  0  0  0  0  0  0  0  0  0
    3.9936   -0.3311   -1.0804 H   0  0  0  0  0  0  0  0  0  0  0  0
    3.8675   -1.8053   -0.0988 H   0  0  0  0  0  0  0  0  0  0  0  0
   -0.6180    2.8518   -0.5624 H   0  0  0  0  0  0  0  0  0  0  0  0
    0.3175    2.9302    0.9721 H   0  0  0  0  0  0  0  0  0  0  0  0
   -3.3187    2.0298    0.8929 H   0  0  0  0  0  0  0  0  0  0  0  0
   -1.7432   -2.4194   -0.9102 H   0  0  0  0  0  0  0  0  0  0  0  0
   -1.5287   -2.7255    0.8435 H   0  0  0  0  0  0  0  0  0  0  0  0
  1  2  1  0
  2  3  2  0
  3  4  1  0
  4  5  1  0
  4  6  2  0
  6  7  1  0
  7  8  2  0
  7  9  1  0
  6 10  1  0
 10 11  1  0
 10 12  2  0
 12  2  1  0
  1 13  1  0
  1 14  1  0
  5 15  1  0
  5 16  1  0
  9 17  1  0
 11 18  1  0
 11 19  1  0
M  END
$$$$
