
     RDKit          3D

 25 26  0  0  0  0  0  0  0  0999 V2000
   -3.9139   -1.7925   -0.3285 O   0  0  0  0  0  0  0  0  0  0  0  0
   -3.1263   -0.8505   -0.0943 C   0  0  0  0  0  0  0  0  0  0  0  0
   -1.8876   -0.5603   -0.8839 C   0  0  0  0  0  0  0  0  0  0  0  0
   -0.9635   -0.1546    0.2731 C   0  0  1  0  0  0  0  0  0  0  0  0
    0.2173    0.4261   -0.2721 N   0  0  0  0  0  0  0  0  0  0  0  0
    0.9013   -0.5864   -1.0606 C   0  0  0  0  0  0  0  0  0  0  0  0
    2.2877    0.0430   -1.2064 C   0  0  0  0  0  0  0  0  0  0  0  0
    2.5340    0.5400    0.2007 C   0  0  2  0  0  0  0  0  0  0  0  0
    3.0294   -0.5189    0.9504 O   0  0  0  0  0  0  0  0  0  0  0  0
    1.1481    0.8995    0.6983 C   0  0  0  0  0  0  0  0  0  0  0  0
   -1.8622    0.7886    0.9773 C   0  0  0  0  0  0  0  0  0  0  0  0
   -1.6694    1.8819    1.5262 O   0  0  0  0  0  0  0  0  0  0  0  0
   -3.1601    0.1505    0.9108 N   0  0  0  0  0  0  0  0  0  0  0  0
   -2.1204    0.3559   -1.4732 H   0  0  0  0  0  0  0  0  0  0  0  0
   -1.5137   -1.4045   -1.4565 H   0  0  0  0  0  0  0  0  0  0  0  0
   -0.7849   -1.0721    0.8951 H   0  0  0  0  0  0  0  0  0  0  0  0
    1.0327   -1.4810   -0.4119 H   0  0  0  0  0  0  0  0  0  0  0  0
    0.4219   -0.7900   -2.0165 H   0  0  0  0  0  0  0  0  0  0  0  0
    2.2062    0.9312   -1.8693 H   0  0  0  0  0  0  0  0  0  0  0  0
    3.0403   -0.6960   -1.5264 H   0  0  0  0  0  0  0  0  0  0  0  0
    3.2264    1.4065    0.2325 H   0  0  0  0  0  0  0  0  0  0  0  0
    2.8600   -0.3762    1.9386 H   0  0  0  0  0  0  0  0  0  0  0  0
    1.1338    2.0163    0.8050 H   0  0  0  0  0  0  0  0  0  0  0  0
    0.9578    0.4696    1.6979 H   0  0  0  0  0  0  0  0  0  0  0  0
   -3.9948    0.3741    1.4936 H   0  0  0  0  0  0  0  0  0  0  0  0
  1  2  2  0
  2  3  1  0
  3  4  1  0
  4  5  1  0
  5  6  1  0
  6  7  1  0
  7  8  1  0
  8  9  1  0
  8 10  1  0
  4 11  1  0
 11 12  2  0
 11 13  1  0
 13  2  1  0
 10  5  1  0
  3 14  1  0
  3 15  1  0
  4 16  1  1
  6 17  1  0
  6 18  1  0
  7 19  1  0
  7 20  1  0
  8 21  1  6
  9 22  1  0
 10 23  1  0
 10 24  1  0
 13 25  1  0
M  END
$$$$

     RDKit          3D

 25 26  0  0  0  0  0  0  0  0999 V2000
    3.3607    1.3905    1.1990 O   0  0  0  0  0  0  0  0  0  0  0  0
    2.7638    0.4753    0.5715 C   0  0  0  0  0  0  0  0  0  0  0  0
    1.8199   -0.4856    1.1955 C   0  0  0  0  0  0  0  0  0  0  0  0
    0.9484   -0.8947    0.0547 C   0  0  1  0  0  0  0  0  0  0  0  0
   -0.0868    0.0140   -0.2892 N   0  0  0  0  0  0  0  0  0  0  0  0
   -0.9685   -0.5893   -1.2382 C   0  0  0  0  0  0  0  0  0  0  0  0
   -2.3147    0.0586   -1.0854 C   0  0  0  0  0  0  0  0  0  0  0  0
   -2.2966    0.5635    0.3403 C   0  0  2  0  0  0  0  0  0  0  0  0
   -2.8684    1.8431    0.3690 O   0  0  0  0  0  0  0  0  0  0  0  0
   -0.8208    0.6159    0.7517 C   0  0  0  0  0  0  0  0  0  0  0  0
    1.9167   -0.9170   -1.0759 C   0  0  0  0  0  0  0  0  0  0  0  0
    1.9466   -1.6852   -2.0573 O   0  0  0  0  0  0  0  0  0  0  0  0
    2.8295    0.1378   -0.8143 N   0  0  0  0  0  0  0  0  0  0  0  0
    1.2961   -0.0768    2.0568 H   0  0  0  0  0  0  0  0  0  0  0  0
    2.4366   -1.3854    1.4758 H   0  0  0  0  0  0  0  0  0  0  0  0
    0.5895   -1.9357    0.2353 H   0  0  0  0  0  0  0  0  0  0  0  0
   -1.0987   -1.6865   -1.0817 H   0  0  0  0  0  0  0  0  0  0  0  0
   -0.5699   -0.4296   -2.2471 H   0  0  0  0  0  0  0  0  0  0  0  0
   -2.3974    0.8867   -1.8249 H   0  0  0  0  0  0  0  0  0  0  0  0
   -3.1642   -0.6723   -1.1882 H   0  0  0  0  0  0  0  0  0  0  0  0
   -2.8616   -0.0711    1.0259 H   0  0  0  0  0  0  0  0  0  0  0  0
   -2.6372    2.3339   -0.4690 H   0  0  0  0  0  0  0  0  0  0  0  0
   -0.5434    1.7091    0.7827 H   0  0  0  0  0  0  0  0  0  0  0  0
   -0.7338    0.1952    1.7432 H   0  0  0  0  0  0  0  0  0  0  0  0
    3.4540    0.6056   -1.4941 H   0  0  0  0  0  0  0  0  0  0  0  0
  1  2  2  0
  2  3  1  0
  3  4  1  0
  4  5  1  0
  5  6  1  0
  6  7  1  0
  7  8  1  0
  8  9  1  0
  8 10  1  0
  4 11  1  0
 11 12  2  0
 11 13  1  0
 13  2  1  0
 10  5  1  0
  3 14  1  0
  3 15  1  0
  4 16  1  1
  6 17  1  0
  6 18  1  0
  7 19  1  0
  7 20  1  0
  8 21  1  1
  9 22  1  0
 10 23  1  0
 10 24  1  0
 13 25  1  0
M  END
$$$$

     RDKit          3D

 25 26  0  0  0  0  0  0  0  0999 V2000
    3.9982   -0.3964   -1.6326 O   0  0  0  0  0  0  0  0  0  0  0  0
    3.0897   -0.3372   -0.7705 C   0  0  0  0  0  0  0  0  0  0  0  0
    1.7478   -0.9798   -0.7311 C   0  0  0  0  0  0  0  0  0  0  0  0
    0.9345    0.1031   -0.0606 C   0  0  1  0  0  0  0  0  0  0  0  0
   -0.2543   -0.3557    0.5611 N   0  0  0  0  0  0  0  0  0  0  0  0
   -1.0056    0.8396    0.9669 C   0  0  0  0  0  0  0  0  0  0  0  0
   -1.8559    1.0723   -0.2889 C   0  0  0  0  0  0  0  0  0  0  0  0
   -2.3983   -0.3490   -0.4771 C   0  0  2  0  0  0  0  0  0  0  0  0
   -3.3041   -0.5461    0.5613 O   0  0  0  0  0  0  0  0  0  0  0  0
   -1.1235   -1.1535   -0.2340 C   0  0  0  0  0  0  0  0  0  0  0  0
    1.8754    0.5379    1.0171 C   0  0  0  0  0  0  0  0  0  0  0  0
    1.6265    0.9297    2.1851 O   0  0  0  0  0  0  0  0  0  0  0  0
    3.1703    0.4159    0.4344 N   0  0  0  0  0  0  0  0  0  0  0  0
    1.8454   -1.8899   -0.1006 H   0  0  0  0  0  0  0  0  0  0  0  0
    1.4176   -1.1813   -1.7595 H   0  0  0  0  0  0  0  0  0  0  0  0
    0.7572    0.8950   -0.7953 H   0  0  0  0  0  0  0  0  0  0  0  0
   -1.6768    0.5791    1.7832 H   0  0  0  0  0  0  0  0  0  0  0  0
   -0.3343    1.6816    1.1737 H   0  0  0  0  0  0  0  0  0  0  0  0
   -1.2153    1.2627   -1.1646 H   0  0  0  0  0  0  0  0  0  0  0  0
   -2.6480    1.8017   -0.1297 H   0  0  0  0  0  0  0  0  0  0  0  0
   -2.8207   -0.5115   -1.4674 H   0  0  0  0  0  0  0  0  0  0  0  0
   -3.7230    0.3242    0.8155 H   0  0  0  0  0  0  0  0  0  0  0  0
   -1.4514   -2.0264    0.4022 H   0  0  0  0  0  0  0  0  0  0  0  0
   -0.6970   -1.5554   -1.1545 H   0  0  0  0  0  0  0  0  0  0  0  0
    4.0453    0.8394    0.8659 H   0  0  0  0  0  0  0  0  0  0  0  0
  1  2  2  0
  2  3  1  0
  3  4  1  0
  4  5  1  0
  5  6  1  0
  6  7  1  0
  7  8  1  0
  8  9  1  0
  8 10  1  0
  4 11  1  0
 11 12  2  0
 11 13  1  0
 13  2  1  0
 10  5  1  0
  3 14  1  0
  3 15  1  0
  4 16  1  6
  6 17  1  0
  6 18  1  0
  7 19  1  0
  7 20  1  0
  8 21  1  6
  9 22  1  0
 10 23  1  0
 10 24  1  0
 13 25  1  0
M  END
$$$$

     RDKit          3D

 25 26  0  0  0  0  0  0  0  0999 V2000
    4.4262    0.6842   -0.2972 O   0  0  0  0  0  0  0  0  0  0  0  0
    3.3155    0.1640   -0.0310 C   0  0  0  0  0  0  0  0  0  0  0  0
    2.1251    0.2367   -0.9184 C   0  0  0  0  0  0  0  0  0  0  0  0
    1.0296    0.3535    0.1527 C   0  0  1  0  0  0  0  0  0  0  0  0
   -0.2567    0.3799   -0.3348 N   0  0  0  0  0  0  0  0  0  0  0  0
   -0.7851   -0.7156   -1.0404 C   0  0  0  0  0  0  0  0  0  0  0  0
   -2.2875   -0.3718   -1.0379 C   0  0  0  0  0  0  0  0  0  0  0  0
   -2.4647   -0.0193    0.4256 C   0  0  2  0  0  0  0  0  0  0  0  0
   -3.5550    0.8135    0.6400 O   0  0  0  0  0  0  0  0  0  0  0  0
   -1.1988    0.7637    0.6971 C   0  0  0  0  0  0  0  0  0  0  0  0
    1.4470   -0.7063    1.0592 C   0  0  0  0  0  0  0  0  0  0  0  0
    0.8615   -1.5894    1.7263 O   0  0  0  0  0  0  0  0  0  0  0  0
    2.8867   -0.5896    1.1000 N   0  0  0  0  0  0  0  0  0  0  0  0
    2.1354    1.1034   -1.5928 H   0  0  0  0  0  0  0  0  0  0  0  0
    2.0548   -0.7308   -1.4664 H   0  0  0  0  0  0  0  0  0  0  0  0
    1.2637    1.3327    0.6663 H   0  0  0  0  0  0  0  0  0  0  0  0
   -0.5049   -0.7879   -2.1087 H   0  0  0  0  0  0  0  0  0  0  0  0
   -0.7453   -1.7004   -0.5106 H   0  0  0  0  0  0  0  0  0  0  0  0
   -2.8944   -1.2552   -1.3127 H   0  0  0  0  0  0  0  0  0  0  0  0
   -2.4863    0.5253   -1.6448 H   0  0  0  0  0  0  0  0  0  0  0  0
   -2.5008   -0.9376    1.0243 H   0  0  0  0  0  0  0  0  0  0  0  0
   -3.2669    1.7734    0.5534 H   0  0  0  0  0  0  0  0  0  0  0  0
   -0.7788    0.3966    1.6775 H   0  0  0  0  0  0  0  0  0  0  0  0
   -1.3675    1.8538    0.7546 H   0  0  0  0  0  0  0  0  0  0  0  0
    3.5471   -0.9768    1.8188 H   0  0  0  0  0  0  0  0  0  0  0  0
  1  2  2  0
  2  3  1  0
  3  4  1  0
  4  5  1  0
  5  6  1  0
  6  7  1  0
  7  8  1  0
  8  9  1  0
  8 10  1  0
  4 11  1  0
 11 12  2  0
 11 13  1  0
 13  2  1  0
 10  5  1  0
  3 14  1  0
  3 15  1  0
  4 16  1  1
  6 17  1  0
  6 18  1  0
  7 19  1  0
  7 20  1  0
  8 21  1  1
  9 22  1  0
 10 23  1  0
 10 24  1  0
 13 25  1  0
M  END
$$$$

     RDKit          3D

 25 26  0  0  0  0  0  0  0  0999 V2000
    3.7690   -0.3379    1.6766 O   0  0  0  0  0  0  0  0  0  0  0  0
    3.0028   -0.1842    0.6979 C   0  0  0  0  0  0  0  0  0  0  0  0
    1.9098   -1.1420    0.3589 C   0  0  0  0  0  0  0  0  0  0  0  0
    1.0744   -0.4623   -0.6977 C   0  0  1  0  0  0  0  0  0  0  0  0
   -0.2178   -0.2566   -0.2555 N   0  0  0  0  0  0  0  0  0  0  0  0
   -1.1083   -1.3053    0.0172 C   0  0  0  0  0  0  0  0  0  0  0  0
   -2.5061   -0.6972   -0.3129 C   0  0  0  0  0  0  0  0  0  0  0  0
   -2.2342    0.7058    0.2471 C   0  0  2  0  0  0  0  0  0  0  0  0
   -3.1822    1.6304   -0.1281 O   0  0  0  0  0  0  0  0  0  0  0  0
   -0.8862    0.9734   -0.4242 C   0  0  0  0  0  0  0  0  0  0  0  0
    1.7617    0.8417   -0.9238 C   0  0  0  0  0  0  0  0  0  0  0  0
    1.3496    1.8102   -1.6104 O   0  0  0  0  0  0  0  0  0  0  0  0
    3.0024    0.8565   -0.2348 N   0  0  0  0  0  0  0  0  0  0  0  0
    2.3471   -2.0818   -0.0055 H   0  0  0  0  0  0  0  0  0  0  0  0
    1.3164   -1.3574    1.2767 H   0  0  0  0  0  0  0  0  0  0  0  0
    1.1676   -1.0071   -1.6740 H   0  0  0  0  0  0  0  0  0  0  0  0
   -0.9744   -2.2407   -0.5418 H   0  0  0  0  0  0  0  0  0  0  0  0
   -1.1455   -1.5532    1.0961 H   0  0  0  0  0  0  0  0  0  0  0  0
   -3.3145   -1.2194    0.1680 H   0  0  0  0  0  0  0  0  0  0  0  0
   -2.5447   -0.5808   -1.4071 H   0  0  0  0  0  0  0  0  0  0  0  0
   -2.0861    0.5888    1.3224 H   0  0  0  0  0  0  0  0  0  0  0  0
   -2.7962    2.4462   -0.5578 H   0  0  0  0  0  0  0  0  0  0  0  0
   -1.1400    1.2069   -1.4913 H   0  0  0  0  0  0  0  0  0  0  0  0
   -0.3715    1.8355    0.0551 H   0  0  0  0  0  0  0  0  0  0  0  0
    3.8068    1.5305   -0.3880 H   0  0  0  0  0  0  0  0  0  0  0  0
  1  2  2  0
  2  3  1  0
  3  4  1  0
  4  5  1  0
  5  6  1  0
  6  7  1  0
  7  8  1  0
  8  9  1  0
  8 10  1  0
  4 11  1  0
 11 12  2  0
 11 13  1  0
 13  2  1  0
 10  5  1  0
  3 14  1  0
  3 15  1  0
  4 16  1  6
  6 17  1  0
  6 18  1  0
  7 19  1  0
  7 20  1  0
  8 21  1  1
  9 22  1  0
 10 23  1  0
 10 24  1  0
 13 25  1  0
M  END
$$$$

     RDKit          3D

 25 26  0  0  0  0  0  0  0  0999 V2000
    3.6974    1.6320   -0.8500 O   0  0  0  0  0  0  0  0  0  0  0  0
    2.9614    0.8269   -0.2626 C   0  0  0  0  0  0  0  0  0  0  0  0
    1.7752    1.2054    0.5194 C   0  0  0  0  0  0  0  0  0  0  0  0
    1.0586   -0.0963    0.8502 C   0  0  1  0  0  0  0  0  0  0  0  0
   -0.2095   -0.0694    0.3277 N   0  0  0  0  0  0  0  0  0  0  0  0
   -0.4615    0.0076   -1.0296 C   0  0  0  0  0  0  0  0  0  0  0  0
   -1.9713    0.2249   -1.1114 C   0  0  0  0  0  0  0  0  0  0  0  0
   -2.4459   -0.5798    0.0879 C   0  0  2  0  0  0  0  0  0  0  0  0
   -3.6879   -0.1545    0.5150 O   0  0  0  0  0  0  0  0  0  0  0  0
   -1.3492   -0.2663    1.1111 C   0  0  0  0  0  0  0  0  0  0  0  0
    1.8832   -1.1512    0.2239 C   0  0  0  0  0  0  0  0  0  0  0  0
    1.5114   -2.3394    0.1280 O   0  0  0  0  0  0  0  0  0  0  0  0
    3.1093   -0.5911   -0.2249 N   0  0  0  0  0  0  0  0  0  0  0  0
    2.1208    1.7254    1.4313 H   0  0  0  0  0  0  0  0  0  0  0  0
    1.1466    1.9023   -0.0322 H   0  0  0  0  0  0  0  0  0  0  0  0
    1.0325   -0.2304    1.9506 H   0  0  0  0  0  0  0  0  0  0  0  0
   -0.1832   -0.8980   -1.5888 H   0  0  0  0  0  0  0  0  0  0  0  0
    0.0922    0.8798   -1.4723 H   0  0  0  0  0  0  0  0  0  0  0  0
   -2.3550   -0.1761   -2.0593 H   0  0  0  0  0  0  0  0  0  0  0  0
   -2.2005    1.2931   -0.9695 H   0  0  0  0  0  0  0  0  0  0  0  0
   -2.4001   -1.6487   -0.1664 H   0  0  0  0  0  0  0  0  0  0  0  0
   -4.2087    0.0581   -0.3107 H   0  0  0  0  0  0  0  0  0  0  0  0
   -1.6106    0.6604    1.6591 H   0  0  0  0  0  0  0  0  0  0  0  0
   -1.2853   -1.0972    1.8505 H   0  0  0  0  0  0  0  0  0  0  0  0
    3.9798   -1.1174   -0.4931 H   0  0  0  0  0  0  0  0  0  0  0  0
  1  2  2  0
  2  3  1  0
  3  4  1  0
  4  5  1  0
  5  6  1  0
  6  7  1  0
  7  8  1  0
  8  9  1  0
  8 10  1  0
  4 11  1  0
 11 12  2  0
 11 13  1  0
 13  2  1  0
 10  5  1  0
  3 14  1  0
  3 15  1  0
  4 16  1  1
  6 17  1  0
  6 18  1  0
  7 19  1  0
  7 20  1  0
  8 21  1  6
  9 22  1  0
 10 23  1  0
 10 24  1  0
 13 25  1  0
M  END
$$$$

     RDKit          3D

 25 26  0  0  0  0  0  0  0  0999 V2000
   -4.0842    1.5353    0.6975 O   0  0  0  0  0  0  0  0  0  0  0  0
   -3.1450    0.7215    0.5437 C   0  0  0  0  0  0  0  0  0  0  0  0
   -1.6905    1.0741    0.5203 C   0  0  0  0  0  0  0  0  0  0  0  0
   -1.1714   -0.0326   -0.3712 C   0  0  1  0  0  0  0  0  0  0  0  0
    0.1901   -0.1520   -0.5320 N   0  0  0  0  0  0  0  0  0  0  0  0
    0.9091    0.8943   -1.1713 C   0  0  0  0  0  0  0  0  0  0  0  0
    2.2802    0.2003   -1.3122 C   0  0  0  0  0  0  0  0  0  0  0  0
    2.4000   -0.3286    0.1253 C   0  0  2  0  0  0  0  0  0  0  0  0
    3.3194   -1.3594    0.2074 O   0  0  0  0  0  0  0  0  0  0  0  0
    0.9856   -0.7622    0.4588 C   0  0  0  0  0  0  0  0  0  0  0  0
   -1.9277   -1.2050    0.1278 C   0  0  0  0  0  0  0  0  0  0  0  0
   -1.5798   -2.3858    0.3262 O   0  0  0  0  0  0  0  0  0  0  0  0
   -3.2539   -0.6801    0.3625 N   0  0  0  0  0  0  0  0  0  0  0  0
   -1.5091    2.0761    0.1432 H   0  0  0  0  0  0  0  0  0  0  0  0
   -1.3248    0.9267    1.5783 H   0  0  0  0  0  0  0  0  0  0  0  0
   -1.6341    0.1889   -1.3882 H   0  0  0  0  0  0  0  0  0  0  0  0
    0.5470    1.1577   -2.1741 H   0  0  0  0  0  0  0  0  0  0  0  0
    0.9819    1.7701   -0.4992 H   0  0  0  0  0  0  0  0  0  0  0  0
    3.0771    0.8938   -1.5684 H   0  0  0  0  0  0  0  0  0  0  0  0
    2.1248   -0.6453   -2.0142 H   0  0  0  0  0  0  0  0  0  0  0  0
    2.7328    0.5571    0.7220 H   0  0  0  0  0  0  0  0  0  0  0  0
    4.2129   -0.9510    0.3556 H   0  0  0  0  0  0  0  0  0  0  0  0
    0.9636   -1.8612    0.4715 H   0  0  0  0  0  0  0  0  0  0  0  0
    0.7593   -0.4256    1.4867 H   0  0  0  0  0  0  0  0  0  0  0  0
   -4.1633   -1.2069    0.3998 H   0  0  0  0  0  0  0  0  0  0  0  0
  1  2  2  0
  2  3  1  0
  3  4  1  0
  4  5  1  0
  5  6  1  0
  6  7  1  0
  7  8  1  0
  8  9  1  0
  8 10  1  0
  4 11  1  0
 11 12  2  0
 11 13  1  0
 13  2  1  0
 10  5  1  0
  3 14  1  0
  3 15  1  0
  4 16  1  6
  6 17  1  0
  6 18  1  0
  7 19  1  0
  7 20  1  0
  8 21  1  1
  9 22  1  0
 10 23  1  0
 10 24  1  0
 13 25  1  0
M  END
$$$$

     RDKit          3D

 25 26  0  0  0  0  0  0  0  0999 V2000
    4.2983   -1.0355    0.0111 O   0  0  0  0  0  0  0  0  0  0  0  0
    3.2672   -0.3889    0.3365 C   0  0  0  0  0  0  0  0  0  0  0  0
    1.9374   -0.9573    0.7032 C   0  0  0  0  0  0  0  0  0  0  0  0
    1.0147    0.1442    0.2231 C   0  0  1  0  0  0  0  0  0  0  0  0
   -0.2458    0.0282    0.9141 N   0  0  0  0  0  0  0  0  0  0  0  0
   -1.1055    1.1719    0.6942 C   0  0  0  0  0  0  0  0  0  0  0  0
   -2.4533    0.6563    0.2680 C   0  0  0  0  0  0  0  0  0  0  0  0
   -2.0885   -0.6675   -0.3822 C   0  0  2  0  0  0  0  0  0  0  0  0
   -3.1930   -1.5240   -0.3145 O   0  0  0  0  0  0  0  0  0  0  0  0
   -0.9655   -1.1432    0.4890 C   0  0  0  0  0  0  0  0  0  0  0  0
    1.7473    1.3519    0.6468 C   0  0  0  0  0  0  0  0  0  0  0  0
    1.3471    2.4397    1.0975 O   0  0  0  0  0  0  0  0  0  0  0  0
    3.1305    1.0240    0.4295 N   0  0  0  0  0  0  0  0  0  0  0  0
    1.8475   -1.0349    1.8191 H   0  0  0  0  0  0  0  0  0  0  0  0
    1.7394   -1.9253    0.2057 H   0  0  0  0  0  0  0  0  0  0  0  0
    0.9123    0.0741   -0.8752 H   0  0  0  0  0  0  0  0  0  0  0  0
   -0.6734    1.8965   -0.0080 H   0  0  0  0  0  0  0  0  0  0  0  0
   -1.1975    1.6738    1.6986 H   0  0  0  0  0  0  0  0  0  0  0  0
   -3.1521    0.4980    1.1045 H   0  0  0  0  0  0  0  0  0  0  0  0
   -2.8795    1.3564   -0.4837 H   0  0  0  0  0  0  0  0  0  0  0  0
   -1.7915   -0.5087   -1.4272 H   0  0  0  0  0  0  0  0  0  0  0  0
   -3.6970   -1.3558    0.5270 H   0  0  0  0  0  0  0  0  0  0  0  0
   -0.3122   -1.8538   -0.0185 H   0  0  0  0  0  0  0  0  0  0  0  0
   -1.4086   -1.6304    1.3937 H   0  0  0  0  0  0  0  0  0  0  0  0
    3.9217    1.7101    0.3499 H   0  0  0  0  0  0  0  0  0  0  0  0
  1  2  2  0
  2  3  1  0
  3  4  1  0
  4  5  1  0
  5  6  1  0
  6  7  1  0
  7  8  1  0
  8  9  1  0
  8 10  1  0
  4 11  1  0
 11 12  2  0
 11 13  1  0
 13  2  1  0
 10  5  1  0
  3 14  1  0
  3 15  1  0
  4 16  1  6
  6 17  1  0
  6 18  1  0
  7 19  1  0
  7 20  1  0
  8 21  1  6
  9 22  1  0
 10 23  1  0
 10 24  1  0
 13 25  1  0
M  END
$$$$
