
     RDKit          3D

 35 36  0  0  0  0  0  0  0  0999 V2000
   -3.6783    1.4662    0.2693 C   0  0  0  0  0  0  0  0  0  0  0  0
   -2.3602    1.0473    0.0430 N   0  0  0  0  0  0  0  0  0  0  0  0
   -1.9757    0.5900   -1.2235 C   0  0  0  0  0  0  0  0  0  0  0  0
   -1.1611   -0.6950   -1.1931 C   0  0  1  0  0  0  0  0  0  0  0  0
    0.2915   -0.4635   -1.4814 C   0  0  0  0  0  0  0  0  0  0  0  0
    1.1597   -0.6941   -0.3574 N   0  0  0  0  0  0  0  0  0  0  0  0
    2.4308   -0.0513   -0.6851 C   0  0  0  0  0  0  0  0  0  0  0  0
    3.5004   -0.3558    0.3282 C   0  0  0  0  0  0  0  0  0  0  0  0
    4.7072    0.3268   -0.1322 N   0  0  0  0  0  0  0  0  0  0  0  0
    0.7015   -0.1101    0.8708 C   0  0  0  0  0  0  0  0  0  0  0  0
   -0.7444   -0.3708    1.1734 C   0  0  1  0  0  0  0  0  0  0  0  0
   -1.4645    0.9623    1.1187 C   0  0  0  0  0  0  0  0  0  0  0  0
   -1.3410   -1.3276    0.1606 C   0  0  0  0  0  0  0  0  0  0  0  0
   -0.6452   -2.5262    0.1906 O   0  0  0  0  0  0  0  0  0  0  0  0
   -4.3306    0.5799    0.4310 H   0  0  0  0  0  0  0  0  0  0  0  0
   -3.7082    2.0518    1.2227 H   0  0  0  0  0  0  0  0  0  0  0  0
   -4.0844    2.1177   -0.5173 H   0  0  0  0  0  0  0  0  0  0  0  0
   -1.3837    1.3704   -1.7639 H   0  0  0  0  0  0  0  0  0  0  0  0
   -2.8868    0.4357   -1.8521 H   0  0  0  0  0  0  0  0  0  0  0  0
   -1.5577   -1.3812   -1.9802 H   0  0  0  0  0  0  0  0  0  0  0  0
    0.6581   -1.1308   -2.3019 H   0  0  0  0  0  0  0  0  0  0  0  0
    0.4761    0.5769   -1.8497 H   0  0  0  0  0  0  0  0  0  0  0  0
    2.7684   -0.3758   -1.6807 H   0  0  0  0  0  0  0  0  0  0  0  0
    2.2344    1.0451   -0.6410 H   0  0  0  0  0  0  0  0  0  0  0  0
    3.2285    0.1032    1.2985 H   0  0  0  0  0  0  0  0  0  0  0  0
    3.7114   -1.4323    0.4226 H   0  0  0  0  0  0  0  0  0  0  0  0
    5.2643   -0.3001   -0.7382 H   0  0  0  0  0  0  0  0  0  0  0  0
    5.2367    0.7353    0.6570 H   0  0  0  0  0  0  0  0  0  0  0  0
    0.9427    0.9721    0.8392 H   0  0  0  0  0  0  0  0  0  0  0  0
    1.3280   -0.5333    1.6908 H   0  0  0  0  0  0  0  0  0  0  0  0
   -0.8713   -0.8529    2.1671 H   0  0  0  0  0  0  0  0  0  0  0  0
   -0.7457    1.8177    1.0479 H   0  0  0  0  0  0  0  0  0  0  0  0
   -2.0226    1.1298    2.0719 H   0  0  0  0  0  0  0  0  0  0  0  0
   -2.4115   -1.4478    0.3766 H   0  0  0  0  0  0  0  0  0  0  0  0
   -1.2667   -3.2798    0.3287 H   0  0  0  0  0  0  0  0  0  0  0  0
  1  2  1  0
  2  3  1  0
  3  4  1  0
  4  5  1  0
  5  6  1  0
  6  7  1  0
  7  8  1  0
  8  9  1  0
  6 10  1  0
 10 11  1  0
 11 12  1  0
 11 13  1  0
 13 14  1  0
 12  2  1  0
 13  4  1  0
  1 15  1  0
  1 16  1  0
  1 17  1  0
  3 18  1  0
  3 19  1  0
  4 20  1  6
  5 21  1  0
  5 22  1  0
  7 23  1  0
  7 24  1  0
  8 25  1  0
  8 26  1  0
  9 27  1  0
  9 28  1  0
 10 29  1  0
 10 30  1  0
 11 31  1  1
 12 32  1  0
 12 33  1  0
 13 34  1  0
 14 35  1  0
M  END
$$$$

     RDKit          3D

 35 36  0  0  0  0  0  0  0  0999 V2000
   -3.3201    1.6667    0.0820 C   0  0  0  0  0  0  0  0  0  0  0  0
   -2.4022    0.5879    0.1948 N   0  0  0  0  0  0  0  0  0  0  0  0
   -1.9972    0.0378   -1.0843 C   0  0  0  0  0  0  0  0  0  0  0  0
   -0.9647   -1.0397   -0.7776 C   0  0  1  0  0  0  0  0  0  0  0  0
    0.4490   -0.5340   -0.8760 C   0  0  0  0  0  0  0  0  0  0  0  0
    1.1089   -0.2621    0.3027 N   0  0  0  0  0  0  0  0  0  0  0  0
    2.5245   -0.1765    0.1935 C   0  0  0  0  0  0  0  0  0  0  0  0
    2.9570    1.0705   -0.5617 C   0  0  0  0  0  0  0  0  0  0  0  0
    4.4149    1.0569   -0.6119 N   0  0  0  0  0  0  0  0  0  0  0  0
    0.6628   -0.6327    1.5628 C   0  0  0  0  0  0  0  0  0  0  0  0
   -0.8687   -0.5543    1.6036 C   0  0  1  0  0  0  0  0  0  0  0  0
   -1.2929    0.8029    1.0847 C   0  0  0  0  0  0  0  0  0  0  0  0
   -1.3001   -1.6264    0.5912 C   0  0  0  0  0  0  0  0  0  0  0  0
   -0.6151   -2.7930    0.8486 O   0  0  0  0  0  0  0  0  0  0  0  0
   -2.8741    2.6642   -0.0365 H   0  0  0  0  0  0  0  0  0  0  0  0
   -4.0298    1.6561    0.9505 H   0  0  0  0  0  0  0  0  0  0  0  0
   -3.9775    1.4465   -0.8097 H   0  0  0  0  0  0  0  0  0  0  0  0
   -2.8627   -0.4724   -1.5614 H   0  0  0  0  0  0  0  0  0  0  0  0
   -1.6218    0.7794   -1.7864 H   0  0  0  0  0  0  0  0  0  0  0  0
   -1.0799   -1.8819   -1.4850 H   0  0  0  0  0  0  0  0  0  0  0  0
    1.0667   -1.2258   -1.5186 H   0  0  0  0  0  0  0  0  0  0  0  0
    0.3825    0.4078   -1.5048 H   0  0  0  0  0  0  0  0  0  0  0  0
    3.0742   -0.2034    1.1613 H   0  0  0  0  0  0  0  0  0  0  0  0
    2.9720   -1.0286   -0.4023 H   0  0  0  0  0  0  0  0  0  0  0  0
    2.6667    1.9719    0.0449 H   0  0  0  0  0  0  0  0  0  0  0  0
    2.5349    1.1045   -1.5733 H   0  0  0  0  0  0  0  0  0  0  0  0
    4.7848    1.8748   -1.1383 H   0  0  0  0  0  0  0  0  0  0  0  0
    4.7047    0.1382   -0.9626 H   0  0  0  0  0  0  0  0  0  0  0  0
    0.8834   -1.6983    1.8618 H   0  0  0  0  0  0  0  0  0  0  0  0
    1.0952    0.0552    2.3293 H   0  0  0  0  0  0  0  0  0  0  0  0
   -1.2726   -0.7325    2.6078 H   0  0  0  0  0  0  0  0  0  0  0  0
   -1.6582    1.4211    1.9362 H   0  0  0  0  0  0  0  0  0  0  0  0
   -0.4603    1.3739    0.6159 H   0  0  0  0  0  0  0  0  0  0  0  0
   -2.3931   -1.7229    0.6259 H   0  0  0  0  0  0  0  0  0  0  0  0
   -1.2911   -3.5318    0.8799 H   0  0  0  0  0  0  0  0  0  0  0  0
  1  2  1  0
  2  3  1  0
  3  4  1  0
  4  5  1  0
  5  6  1  0
  6  7  1  0
  7  8  1  0
  8  9  1  0
  6 10  1  0
 10 11  1  0
 11 12  1  0
 11 13  1  0
 13 14  1  0
 12  2  1  0
 13  4  1  0
  1 15  1  0
  1 16  1  0
  1 17  1  0
  3 18  1  0
  3 19  1  0
  4 20  1  6
  5 21  1  0
  5 22  1  0
  7 23  1  0
  7 24  1  0
  8 25  1  0
  8 26  1  0
  9 27  1  0
  9 28  1  0
 10 29  1  0
 10 30  1  0
 11 31  1  1
 12 32  1  0
 12 33  1  0
 13 34  1  0
 14 35  1  0
M  END
$$$$

     RDKit          3D

 35 36  0  0  0  0  0  0  0  0999 V2000
   -3.8617    0.1555    0.0885 C   0  0  0  0  0  0  0  0  0  0  0  0
   -2.6089    0.2495   -0.5645 N   0  0  0  0  0  0  0  0  0  0  0  0
   -1.9256   -0.9764   -0.8412 C   0  0  0  0  0  0  0  0  0  0  0  0
   -0.8308   -1.3129    0.1455 C   0  0  1  0  0  0  0  0  0  0  0  0
    0.5167   -1.4969   -0.4738 C   0  0  0  0  0  0  0  0  0  0  0  0
    1.2812   -0.3007   -0.6968 N   0  0  0  0  0  0  0  0  0  0  0  0
    2.5257   -0.3020    0.0389 C   0  0  0  0  0  0  0  0  0  0  0  0
    3.5073    0.7471   -0.4324 C   0  0  0  0  0  0  0  0  0  0  0  0
    4.6953    0.6005    0.4452 N   0  0  0  0  0  0  0  0  0  0  0  0
    0.5313    0.8973   -0.6629 C   0  0  0  0  0  0  0  0  0  0  0  0
   -0.5021    1.0503    0.3948 C   0  0  1  0  0  0  0  0  0  0  0  0
   -1.8103    1.3892   -0.3207 C   0  0  0  0  0  0  0  0  0  0  0  0
   -0.6823   -0.2075    1.1811 C   0  0  0  0  0  0  0  0  0  0  0  0
   -1.8003   -0.1621    2.0156 O   0  0  0  0  0  0  0  0  0  0  0  0
   -4.6624    0.3856   -0.6807 H   0  0  0  0  0  0  0  0  0  0  0  0
   -4.0443   -0.8828    0.4349 H   0  0  0  0  0  0  0  0  0  0  0  0
   -4.0563    0.9022    0.8917 H   0  0  0  0  0  0  0  0  0  0  0  0
   -2.6892   -1.7692   -0.9304 H   0  0  0  0  0  0  0  0  0  0  0  0
   -1.4451   -0.8774   -1.8406 H   0  0  0  0  0  0  0  0  0  0  0  0
   -1.1720   -2.2464    0.6671 H   0  0  0  0  0  0  0  0  0  0  0  0
    1.0733   -2.2553    0.1104 H   0  0  0  0  0  0  0  0  0  0  0  0
    0.3391   -1.9671   -1.4887 H   0  0  0  0  0  0  0  0  0  0  0  0
    2.9879   -1.3247    0.0401 H   0  0  0  0  0  0  0  0  0  0  0  0
    2.3625   -0.0271    1.1339 H   0  0  0  0  0  0  0  0  0  0  0  0
    3.1214    1.7527   -0.1966 H   0  0  0  0  0  0  0  0  0  0  0  0
    3.7984    0.6135   -1.5074 H   0  0  0  0  0  0  0  0  0  0  0  0
    4.5105   -0.1225    1.1788 H   0  0  0  0  0  0  0  0  0  0  0  0
    5.5024    0.2698   -0.0890 H   0  0  0  0  0  0  0  0  0  0  0  0
    0.1191    1.0431   -1.7098 H   0  0  0  0  0  0  0  0  0  0  0  0
    1.2415    1.7709   -0.5659 H   0  0  0  0  0  0  0  0  0  0  0  0
   -0.2946    1.9104    1.0759 H   0  0  0  0  0  0  0  0  0  0  0  0
   -1.5830    1.8841   -1.2899 H   0  0  0  0  0  0  0  0  0  0  0  0
   -2.4006    2.1422    0.2671 H   0  0  0  0  0  0  0  0  0  0  0  0
    0.1588   -0.4532    1.8125 H   0  0  0  0  0  0  0  0  0  0  0  0
   -1.9029   -1.0797    2.3695 H   0  0  0  0  0  0  0  0  0  0  0  0
  1  2  1  0
  2  3  1  0
  3  4  1  0
  4  5  1  0
  5  6  1  0
  6  7  1  0
  7  8  1  0
  8  9  1  0
  6 10  1  0
 10 11  1  0
 11 12  1  0
 11 13  1  0
 13 14  1  0
 12  2  1  0
 13  4  1  0
  1 15  1  0
  1 16  1  0
  1 17  1  0
  3 18  1  0
  3 19  1  0
  4 20  1  1
  5 21  1  0
  5 22  1  0
  7 23  1  0
  7 24  1  0
  8 25  1  0
  8 26  1  0
  9 27  1  0
  9 28  1  0
 10 29  1  0
 10 30  1  0
 11 31  1  1
 12 32  1  0
 12 33  1  0
 13 34  1  0
 14 35  1  0
M  END
$$$$

     RDKit          3D

 35 36  0  0  0  0  0  0  0  0999 V2000
   -3.6544    1.2620    0.1486 C   0  0  0  0  0  0  0  0  0  0  0  0
   -2.2982    0.8187   -0.1744 N   0  0  0  0  0  0  0  0  0  0  0  0
   -2.2771   -0.5999    0.0417 C   0  0  0  0  0  0  0  0  0  0  0  0
   -0.8769   -1.1744    0.1455 C   0  0  1  0  0  0  0  0  0  0  0  0
   -0.1383   -1.0760   -1.1582 C   0  0  0  0  0  0  0  0  0  0  0  0
    0.9789   -0.1867   -1.1395 N   0  0  0  0  0  0  0  0  0  0  0  0
    2.1986   -0.8624   -0.8763 C   0  0  0  0  0  0  0  0  0  0  0  0
    3.3565    0.0084   -0.5026 C   0  0  0  0  0  0  0  0  0  0  0  0
    4.5086   -0.8796   -0.3464 N   0  0  0  0  0  0  0  0  0  0  0  0
    0.7705    1.0605   -0.4958 C   0  0  0  0  0  0  0  0  0  0  0  0
   -0.0277    0.9830    0.7796 C   0  0  1  0  0  0  0  0  0  0  0  0
   -1.4053    1.5704    0.6570 C   0  0  0  0  0  0  0  0  0  0  0  0
   -0.2090   -0.4341    1.2724 C   0  0  0  0  0  0  0  0  0  0  0  0
   -1.1358   -0.3688    2.3252 O   0  0  0  0  0  0  0  0  0  0  0  0
   -3.8191    2.3237   -0.0827 H   0  0  0  0  0  0  0  0  0  0  0  0
   -3.7936    1.1596    1.2547 H   0  0  0  0  0  0  0  0  0  0  0  0
   -4.4240    0.6011   -0.3040 H   0  0  0  0  0  0  0  0  0  0  0  0
   -2.8425   -0.9277    0.9368 H   0  0  0  0  0  0  0  0  0  0  0  0
   -2.7369   -1.0832   -0.8571 H   0  0  0  0  0  0  0  0  0  0  0  0
   -1.0131   -2.2618    0.3661 H   0  0  0  0  0  0  0  0  0  0  0  0
    0.2296   -2.0665   -1.5224 H   0  0  0  0  0  0  0  0  0  0  0  0
   -0.8619   -0.6918   -1.9188 H   0  0  0  0  0  0  0  0  0  0  0  0
    2.4981   -1.3947   -1.8171 H   0  0  0  0  0  0  0  0  0  0  0  0
    2.1296   -1.6716   -0.1134 H   0  0  0  0  0  0  0  0  0  0  0  0
    3.2468    0.5239    0.4654 H   0  0  0  0  0  0  0  0  0  0  0  0
    3.6249    0.6951   -1.3384 H   0  0  0  0  0  0  0  0  0  0  0  0
    5.1798   -0.5239    0.3752 H   0  0  0  0  0  0  0  0  0  0  0  0
    4.2224   -1.8305   -0.0128 H   0  0  0  0  0  0  0  0  0  0  0  0
    0.1644    1.6950   -1.1936 H   0  0  0  0  0  0  0  0  0  0  0  0
    1.7288    1.5843   -0.3799 H   0  0  0  0  0  0  0  0  0  0  0  0
    0.5162    1.5848    1.5363 H   0  0  0  0  0  0  0  0  0  0  0  0
   -1.7976    1.7419    1.6828 H   0  0  0  0  0  0  0  0  0  0  0  0
   -1.2891    2.5854    0.2100 H   0  0  0  0  0  0  0  0  0  0  0  0
    0.7079   -0.9000    1.6432 H   0  0  0  0  0  0  0  0  0  0  0  0
   -1.4608   -1.2642    2.5927 H   0  0  0  0  0  0  0  0  0  0  0  0
  1  2  1  0
  2  3  1  0
  3  4  1  0
  4  5  1  0
  5  6  1  0
  6  7  1  0
  7  8  1  0
  8  9  1  0
  6 10  1  0
 10 11  1  0
 11 12  1  0
 11 13  1  0
 13 14  1  0
 12  2  1  0
 13  4  1  0
  1 15  1  0
  1 16  1  0
  1 17  1  0
  3 18  1  0
  3 19  1  0
  4 20  1  1
  5 21  1  0
  5 22  1  0
  7 23  1  0
  7 24  1  0
  8 25  1  0
  8 26  1  0
  9 27  1  0
  9 28  1  0
 10 29  1  0
 10 30  1  0
 11 31  1  1
 12 32  1  0
 12 33  1  0
 13 34  1  0
 14 35  1  0
M  END
$$$$

     RDKit          3D

 35 36  0  0  0  0  0  0  0  0999 V2000
   -3.7377    0.6557    0.1831 C   0  0  0  0  0  0  0  0  0  0  0  0
   -2.4138    0.6293    0.7018 N   0  0  0  0  0  0  0  0  0  0  0  0
   -1.4460    1.3472   -0.0616 C   0  0  0  0  0  0  0  0  0  0  0  0
   -0.7152    0.5268   -1.0837 C   0  0  1  0  0  0  0  0  0  0  0  0
    0.7686    0.6071   -0.7643 C   0  0  0  0  0  0  0  0  0  0  0  0
    1.2904   -0.5713   -0.1307 N   0  0  0  0  0  0  0  0  0  0  0  0
    2.5048   -0.1529    0.5619 C   0  0  0  0  0  0  0  0  0  0  0  0
    3.5951    0.2148   -0.4246 C   0  0  0  0  0  0  0  0  0  0  0  0
    4.7638    0.6319    0.3315 N   0  0  0  0  0  0  0  0  0  0  0  0
    0.4208   -1.1542    0.8612 C   0  0  0  0  0  0  0  0  0  0  0  0
   -0.9997   -1.3574    0.3972 C   0  0  1  0  0  0  0  0  0  0  0  0
   -1.9758   -0.5903    1.2618 C   0  0  0  0  0  0  0  0  0  0  0  0
   -1.0705   -0.9466   -1.0470 C   0  0  0  0  0  0  0  0  0  0  0  0
   -2.2377   -1.2548   -1.6864 O   0  0  0  0  0  0  0  0  0  0  0  0
   -3.8097    0.9751   -0.8829 H   0  0  0  0  0  0  0  0  0  0  0  0
   -4.2942    1.4579    0.7497 H   0  0  0  0  0  0  0  0  0  0  0  0
   -4.3213   -0.2605    0.3205 H   0  0  0  0  0  0  0  0  0  0  0  0
   -0.7390    1.8276    0.6749 H   0  0  0  0  0  0  0  0  0  0  0  0
   -1.9544    2.2063   -0.5508 H   0  0  0  0  0  0  0  0  0  0  0  0
   -0.9303    0.9061   -2.0918 H   0  0  0  0  0  0  0  0  0  0  0  0
    1.3084    0.7791   -1.7162 H   0  0  0  0  0  0  0  0  0  0  0  0
    0.9684    1.4671   -0.0598 H   0  0  0  0  0  0  0  0  0  0  0  0
    2.8895   -0.9950    1.1697 H   0  0  0  0  0  0  0  0  0  0  0  0
    2.2416    0.6621    1.2296 H   0  0  0  0  0  0  0  0  0  0  0  0
    3.2998    0.9713   -1.1604 H   0  0  0  0  0  0  0  0  0  0  0  0
    3.9338   -0.7281   -0.9578 H   0  0  0  0  0  0  0  0  0  0  0  0
    5.3393    1.3136   -0.2283 H   0  0  0  0  0  0  0  0  0  0  0  0
    4.5330    1.0150    1.2791 H   0  0  0  0  0  0  0  0  0  0  0  0
    0.8422   -2.1758    1.0828 H   0  0  0  0  0  0  0  0  0  0  0  0
    0.5082   -0.5529    1.7862 H   0  0  0  0  0  0  0  0  0  0  0  0
   -1.3224   -2.4295    0.4386 H   0  0  0  0  0  0  0  0  0  0  0  0
   -1.4254   -0.3641    2.2232 H   0  0  0  0  0  0  0  0  0  0  0  0
   -2.8520   -1.1872    1.5733 H   0  0  0  0  0  0  0  0  0  0  0  0
   -0.2430   -1.4786   -1.5679 H   0  0  0  0  0  0  0  0  0  0  0  0
   -2.7198   -1.9946   -1.2318 H   0  0  0  0  0  0  0  0  0  0  0  0
  1  2  1  0
  2  3  1  0
  3  4  1  0
  4  5  1  0
  5  6  1  0
  6  7  1  0
  7  8  1  0
  8  9  1  0
  6 10  1  0
 10 11  1  0
 11 12  1  0
 11 13  1  0
 13 14  1  0
 12  2  1  0
 13  4  1  0
  1 15  1  0
  1 16  1  0
  1 17  1  0
  3 18  1  0
  3 19  1  0
  4 20  1  6
  5 21  1  0
  5 22  1  0
  7 23  1  0
  7 24  1  0
  8 25  1  0
  8 26  1  0
  9 27  1  0
  9 28  1  0
 10 29  1  0
 10 30  1  0
 11 31  1  6
 12 32  1  0
 12 33  1  0
 13 34  1  0
 14 35  1  0
M  END
$$$$

     RDKit          3D

 35 36  0  0  0  0  0  0  0  0999 V2000
    3.3544    1.4777    0.0612 C   0  0  0  0  0  0  0  0  0  0  0  0
    2.0102    1.1503   -0.2764 N   0  0  0  0  0  0  0  0  0  0  0  0
    1.1241    1.1727    0.8253 C   0  0  0  0  0  0  0  0  0  0  0  0
    0.8958   -0.1195    1.5340 C   0  0  1  0  0  0  0  0  0  0  0  0
   -0.6101   -0.3432    1.6092 C   0  0  0  0  0  0  0  0  0  0  0  0
   -1.1890    0.0588    0.3471 N   0  0  0  0  0  0  0  0  0  0  0  0
   -2.5789   -0.4317    0.4282 C   0  0  0  0  0  0  0  0  0  0  0  0
   -3.4016   -0.0253   -0.7554 C   0  0  0  0  0  0  0  0  0  0  0  0
   -3.4416    1.4264   -0.8031 N   0  0  0  0  0  0  0  0  0  0  0  0
   -0.5547   -0.5195   -0.7962 C   0  0  0  0  0  0  0  0  0  0  0  0
    0.8412   -0.9579   -0.6973 C   0  0  1  0  0  0  0  0  0  0  0  0
    1.8547    0.0807   -1.2033 C   0  0  0  0  0  0  0  0  0  0  0  0
    1.3369   -1.3210    0.6783 C   0  0  0  0  0  0  0  0  0  0  0  0
    0.6310   -2.4364    1.1069 O   0  0  0  0  0  0  0  0  0  0  0  0
    3.6769    0.8782    0.9306 H   0  0  0  0  0  0  0  0  0  0  0  0
    4.0571    1.3634   -0.7712 H   0  0  0  0  0  0  0  0  0  0  0  0
    3.3640    2.5531    0.3933 H   0  0  0  0  0  0  0  0  0  0  0  0
    1.5565    1.8900    1.5852 H   0  0  0  0  0  0  0  0  0  0  0  0
    0.1785    1.6804    0.4909 H   0  0  0  0  0  0  0  0  0  0  0  0
    1.3188   -0.1688    2.5383 H   0  0  0  0  0  0  0  0  0  0  0  0
   -0.8651   -1.3944    1.8644 H   0  0  0  0  0  0  0  0  0  0  0  0
   -0.9998    0.3891    2.3648 H   0  0  0  0  0  0  0  0  0  0  0  0
   -3.0000   -0.0368    1.3675 H   0  0  0  0  0  0  0  0  0  0  0  0
   -2.4518   -1.5504    0.4836 H   0  0  0  0  0  0  0  0  0  0  0  0
   -4.4360   -0.3782   -0.5930 H   0  0  0  0  0  0  0  0  0  0  0  0
   -2.9897   -0.4527   -1.6917 H   0  0  0  0  0  0  0  0  0  0  0  0
   -2.6216    1.7890   -1.3059 H   0  0  0  0  0  0  0  0  0  0  0  0
   -3.5434    1.8419    0.1334 H   0  0  0  0  0  0  0  0  0  0  0  0
   -0.6465    0.1987   -1.6388 H   0  0  0  0  0  0  0  0  0  0  0  0
   -1.1832   -1.3984   -1.1316 H   0  0  0  0  0  0  0  0  0  0  0  0
    1.0195   -1.8666   -1.3378 H   0  0  0  0  0  0  0  0  0  0  0  0
    2.8278   -0.4836   -1.2443 H   0  0  0  0  0  0  0  0  0  0  0  0
    1.6421    0.3805   -2.2456 H   0  0  0  0  0  0  0  0  0  0  0  0
    2.4154   -1.4314    0.6683 H   0  0  0  0  0  0  0  0  0  0  0  0
    0.4081   -3.0150    0.3349 H   0  0  0  0  0  0  0  0  0  0  0  0
  1  2  1  0
  2  3  1  0
  3  4  1  0
  4  5  1  0
  5  6  1  0
  6  7  1  0
  7  8  1  0
  8  9  1  0
  6 10  1  0
 10 11  1  0
 11 12  1  0
 11 13  1  0
 13 14  1  0
 12  2  1  0
 13  4  1  0
  1 15  1  0
  1 16  1  0
  1 17  1  0
  3 18  1  0
  3 19  1  0
  4 20  1  1
  5 21  1  0
  5 22  1  0
  7 23  1  0
  7 24  1  0
  8 25  1  0
  8 26  1  0
  9 27  1  0
  9 28  1  0
 10 29  1  0
 10 30  1  0
 11 31  1  6
 12 32  1  0
 12 33  1  0
 13 34  1  0
 14 35  1  0
M  END
$$$$

     RDKit          3D

 35 36  0  0  0  0  0  0  0  0999 V2000
   -2.8943    1.7336    0.4229 C   0  0  0  0  0  0  0  0  0  0  0  0
   -2.1678    0.5175    0.1981 N   0  0  0  0  0  0  0  0  0  0  0  0
   -1.4012    0.5718   -1.0449 C   0  0  0  0  0  0  0  0  0  0  0  0
   -1.0290   -0.8579   -1.3889 C   0  0  1  0  0  0  0  0  0  0  0  0
    0.4688   -0.8800   -1.6400 C   0  0  0  0  0  0  0  0  0  0  0  0
    1.1112   -0.3216   -0.4993 N   0  0  0  0  0  0  0  0  0  0  0  0
    2.4453    0.0852   -0.7635 C   0  0  0  0  0  0  0  0  0  0  0  0
    3.1670    0.6818    0.4106 C   0  0  0  0  0  0  0  0  0  0  0  0
    2.4141    1.8692    0.8436 N   0  0  0  0  0  0  0  0  0  0  0  0
    0.8882   -1.0313    0.7102 C   0  0  0  0  0  0  0  0  0  0  0  0
   -0.6001   -1.0954    0.9940 C   0  0  1  0  0  0  0  0  0  0  0  0
   -1.1992    0.2500    1.2536 C   0  0  0  0  0  0  0  0  0  0  0  0
   -1.2520   -1.7842   -0.1858 C   0  0  0  0  0  0  0  0  0  0  0  0
   -2.5851   -2.0418    0.0032 O   0  0  0  0  0  0  0  0  0  0  0  0
   -3.7657    1.5423    1.1017 H   0  0  0  0  0  0  0  0  0  0  0  0
   -3.2765    2.1064   -0.5717 H   0  0  0  0  0  0  0  0  0  0  0  0
   -2.2502    2.5282    0.8560 H   0  0  0  0  0  0  0  0  0  0  0  0
   -1.9584    1.0748   -1.8381 H   0  0  0  0  0  0  0  0  0  0  0  0
   -0.4916    1.1847   -0.7973 H   0  0  0  0  0  0  0  0  0  0  0  0
   -1.5954   -1.2364   -2.2671 H   0  0  0  0  0  0  0  0  0  0  0  0
    0.6549   -0.1848   -2.5038 H   0  0  0  0  0  0  0  0  0  0  0  0
    0.8021   -1.9147   -1.8804 H   0  0  0  0  0  0  0  0  0  0  0  0
    2.4375    0.7961   -1.6147 H   0  0  0  0  0  0  0  0  0  0  0  0
    3.0200   -0.8150   -1.1045 H   0  0  0  0  0  0  0  0  0  0  0  0
    3.3333   -0.0113    1.2317 H   0  0  0  0  0  0  0  0  0  0  0  0
    4.1577    1.0693    0.0950 H   0  0  0  0  0  0  0  0  0  0  0  0
    2.3461    1.9190    1.8757 H   0  0  0  0  0  0  0  0  0  0  0  0
    2.8178    2.7439    0.4306 H   0  0  0  0  0  0  0  0  0  0  0  0
    1.3559   -0.5066    1.5562 H   0  0  0  0  0  0  0  0  0  0  0  0
    1.2323   -2.0910    0.6199 H   0  0  0  0  0  0  0  0  0  0  0  0
   -0.8038   -1.7347    1.8835 H   0  0  0  0  0  0  0  0  0  0  0  0
   -0.3945    1.0153    1.1377 H   0  0  0  0  0  0  0  0  0  0  0  0
   -1.6607    0.3441    2.2553 H   0  0  0  0  0  0  0  0  0  0  0  0
   -0.6660   -2.7017   -0.3941 H   0  0  0  0  0  0  0  0  0  0  0  0
   -2.6606   -2.8246    0.6147 H   0  0  0  0  0  0  0  0  0  0  0  0
  1  2  1  0
  2  3  1  0
  3  4  1  0
  4  5  1  0
  5  6  1  0
  6  7  1  0
  7  8  1  0
  8  9  1  0
  6 10  1  0
 10 11  1  0
 11 12  1  0
 11 13  1  0
 13 14  1  0
 12  2  1  0
 13  4  1  0
  1 15  1  0
  1 16  1  0
  1 17  1  0
  3 18  1  0
  3 19  1  0
  4 20  1  6
  5 21  1  0
  5 22  1  0
  7 23  1  0
  7 24  1  0
  8 25  1  0
  8 26  1  0
  9 27  1  0
  9 28  1  0
 10 29  1  0
 10 30  1  0
 11 31  1  1
 12 32  1  0
 12 33  1  0
 13 34  1  0
 14 35  1  0
M  END
$$$$

     RDKit          3D

 35 36  0  0  0  0  0  0  0  0999 V2000
   -3.8654    0.8020   -0.3081 C   0  0  0  0  0  0  0  0  0  0  0  0
   -2.4297    0.8292   -0.3578 N   0  0  0  0  0  0  0  0  0  0  0  0
   -1.9051    0.2416   -1.5055 C   0  0  0  0  0  0  0  0  0  0  0  0
   -0.6761   -0.6414   -1.3219 C   0  0  1  0  0  0  0  0  0  0  0  0
    0.5264    0.2129   -1.3843 C   0  0  0  0  0  0  0  0  0  0  0  0
    1.3541    0.3095   -0.2169 N   0  0  0  0  0  0  0  0  0  0  0  0
    2.5423   -0.4828   -0.2909 C   0  0  0  0  0  0  0  0  0  0  0  0
    3.5293   -0.2356    0.8135 C   0  0  0  0  0  0  0  0  0  0  0  0
    3.9563    1.1624    0.7662 N   0  0  0  0  0  0  0  0  0  0  0  0
    0.6579    0.3253    1.0141 C   0  0  0  0  0  0  0  0  0  0  0  0
   -0.7138   -0.2853    1.0294 C   0  0  1  0  0  0  0  0  0  0  0  0
   -1.7992    0.7379    0.8909 C   0  0  0  0  0  0  0  0  0  0  0  0
   -0.8937   -1.3368   -0.0120 C   0  0  0  0  0  0  0  0  0  0  0  0
   -0.1976   -2.4860    0.1647 O   0  0  0  0  0  0  0  0  0  0  0  0
   -4.3187    1.2765   -1.1810 H   0  0  0  0  0  0  0  0  0  0  0  0
   -4.1770   -0.2644   -0.3305 H   0  0  0  0  0  0  0  0  0  0  0  0
   -4.2719    1.2856    0.6092 H   0  0  0  0  0  0  0  0  0  0  0  0
   -2.6797   -0.4046   -1.9658 H   0  0  0  0  0  0  0  0  0  0  0  0
   -1.6788    1.0170   -2.2953 H   0  0  0  0  0  0  0  0  0  0  0  0
   -0.6730   -1.3905   -2.1546 H   0  0  0  0  0  0  0  0  0  0  0  0
    0.2707    1.2833   -1.6619 H   0  0  0  0  0  0  0  0  0  0  0  0
    1.2076   -0.0999   -2.2253 H   0  0  0  0  0  0  0  0  0  0  0  0
    2.3436   -1.5976   -0.2475 H   0  0  0  0  0  0  0  0  0  0  0  0
    3.0725   -0.2747   -1.2584 H   0  0  0  0  0  0  0  0  0  0  0  0
    3.1813   -0.5230    1.8189 H   0  0  0  0  0  0  0  0  0  0  0  0
    4.4750   -0.8409    0.6092 H   0  0  0  0  0  0  0  0  0  0  0  0
    3.2686    1.7403    0.2567 H   0  0  0  0  0  0  0  0  0  0  0  0
    4.8908    1.2295    0.3095 H   0  0  0  0  0  0  0  0  0  0  0  0
    1.2950   -0.1148    1.8124 H   0  0  0  0  0  0  0  0  0  0  0  0
    0.5474    1.4164    1.3053 H   0  0  0  0  0  0  0  0  0  0  0  0
   -0.8103   -0.8156    2.0241 H   0  0  0  0  0  0  0  0  0  0  0  0
   -2.5598    0.5452    1.6750 H   0  0  0  0  0  0  0  0  0  0  0  0
   -1.3624    1.7310    1.1691 H   0  0  0  0  0  0  0  0  0  0  0  0
   -1.9928   -1.6250    0.0093 H   0  0  0  0  0  0  0  0  0  0  0  0
   -0.1137   -2.7267    1.1155 H   0  0  0  0  0  0  0  0  0  0  0  0
  1  2  1  0
  2  3  1  0
  3  4  1  0
  4  5  1  0
  5  6  1  0
  6  7  1  0
  7  8  1  0
  8  9  1  0
  6 10  1  0
 10 11  1  0
 11 12  1  0
 11 13  1  0
 13 14  1  0
 12  2  1  0
 13  4  1  0
  1 15  1  0
  1 16  1  0
  1 17  1  0
  3 18  1  0
  3 19  1  0
  4 20  1  6
  5 21  1  0
  5 22  1  0
  7 23  1  0
  7 24  1  0
  8 25  1  0
  8 26  1  0
  9 27  1  0
  9 28  1  0
 10 29  1  0
 10 30  1  0
 11 31  1  1
 12 32  1  0
 12 33  1  0
 13 34  1  0
 14 35  1  0
M  END
$$$$
