
     RDKit          3D

 25 24  0  0  0  0  0  0  0  0999 V2000
   -2.7245    1.4054   -0.0821 C   0  0  0  0  0  0  0  0  0  0  0  0
   -1.9744    0.2651    0.6030 C   0  0  0  0  0  0  0  0  0  0  0  0
   -2.9966   -0.7902    0.9695 C   0  0  0  0  0  0  0  0  0  0  0  0
   -1.4275    0.7426    1.7707 O   0  0  0  0  0  0  0  0  0  0  0  0
   -0.9790   -0.2211   -0.3616 C   0  0  0  0  0  0  0  0  0  0  0  0
   -1.3948   -0.6758   -1.4587 O   0  0  0  0  0  0  0  0  0  0  0  0
    0.4232   -0.2182   -0.1518 N   0  0  0  0  0  0  0  0  0  0  0  0
    1.3825   -0.7004   -1.1125 C   0  0  0  0  0  0  0  0  0  0  0  0
    2.7975   -0.5828   -0.6393 C   0  0  0  0  0  0  0  0  0  0  0  0
    3.1302    0.7626   -0.3705 O   0  0  0  0  0  0  0  0  0  0  0  0
    4.3812    0.9007    0.0519 N   0  0  0  0  0  0  0  0  0  0  0  0
   -1.9708    2.2077   -0.2444 H   0  0  0  0  0  0  0  0  0  0  0  0
   -3.5924    1.7343    0.5138 H   0  0  0  0  0  0  0  0  0  0  0  0
   -3.0740    1.0685   -1.0793 H   0  0  0  0  0  0  0  0  0  0  0  0
   -3.2697   -1.4438    0.1344 H   0  0  0  0  0  0  0  0  0  0  0  0
   -3.8963   -0.2532    1.3360 H   0  0  0  0  0  0  0  0  0  0  0  0
   -2.6430   -1.4025    1.8357 H   0  0  0  0  0  0  0  0  0  0  0  0
   -1.6158    0.1756    2.5411 H   0  0  0  0  0  0  0  0  0  0  0  0
    0.7718    0.1581    0.7569 H   0  0  0  0  0  0  0  0  0  0  0  0
    1.2898   -0.0173   -2.0079 H   0  0  0  0  0  0  0  0  0  0  0  0
    1.1741   -1.7032   -1.4787 H   0  0  0  0  0  0  0  0  0  0  0  0
    3.0287   -1.2259    0.2236 H   0  0  0  0  0  0  0  0  0  0  0  0
    3.4815   -0.8913   -1.4566 H   0  0  0  0  0  0  0  0  0  0  0  0
    4.6942   -0.0081    0.4503 H   0  0  0  0  0  0  0  0  0  0  0  0
    5.0043    1.1638   -0.7435 H   0  0  0  0  0  0  0  0  0  0  0  0
  1  2  1  0
  2  3  1  0
  2  4  1  0
  2  5  1  0
  5  6  2  0
  5  7  1  0
  7  8  1  0
  8  9  1  0
  9 10  1  0
 10 11  1  0
  1 12  1  0
  1 13  1  0
  1 14  1  0
  3 15  1  0
  3 16  1  0
  3 17  1  0
  4 18  1  0
  7 19  1  0
  8 20  1  0
  8 21  1  0
  9 22  1  0
  9 23  1  0
 11 24  1  0
 11 25  1  0
M  END
$$$$

     RDKit          3D

 25 24  0  0  0  0  0  0  0  0999 V2000
   -2.9892    0.4777   -1.1160 C   0  0  0  0  0  0  0  0  0  0  0  0
   -2.2313    0.0319    0.1133 C   0  0  0  0  0  0  0  0  0  0  0  0
   -2.9754   -1.1513    0.7197 C   0  0  0  0  0  0  0  0  0  0  0  0
   -2.1455    1.0151    1.0637 O   0  0  0  0  0  0  0  0  0  0  0  0
   -0.8689   -0.4230   -0.3445 C   0  0  0  0  0  0  0  0  0  0  0  0
   -0.7777   -1.3247   -1.2184 O   0  0  0  0  0  0  0  0  0  0  0  0
    0.3176    0.1253    0.1707 N   0  0  0  0  0  0  0  0  0  0  0  0
    1.5986   -0.3590   -0.3146 C   0  0  0  0  0  0  0  0  0  0  0  0
    2.7506    0.3585    0.3649 C   0  0  0  0  0  0  0  0  0  0  0  0
    3.9253   -0.1994   -0.1904 O   0  0  0  0  0  0  0  0  0  0  0  0
    5.0337    0.3541    0.3309 N   0  0  0  0  0  0  0  0  0  0  0  0
   -4.0430    0.1365   -1.1077 H   0  0  0  0  0  0  0  0  0  0  0  0
   -2.5333    0.0072   -2.0306 H   0  0  0  0  0  0  0  0  0  0  0  0
   -2.9089    1.5771   -1.1891 H   0  0  0  0  0  0  0  0  0  0  0  0
   -3.9683   -0.7660    1.0441 H   0  0  0  0  0  0  0  0  0  0  0  0
   -2.4400   -1.4807    1.6429 H   0  0  0  0  0  0  0  0  0  0  0  0
   -3.0623   -1.9822    0.0083 H   0  0  0  0  0  0  0  0  0  0  0  0
   -2.1454    1.9324    0.7311 H   0  0  0  0  0  0  0  0  0  0  0  0
    0.2326    0.8716    0.8941 H   0  0  0  0  0  0  0  0  0  0  0  0
    1.7094   -1.4660   -0.1548 H   0  0  0  0  0  0  0  0  0  0  0  0
    1.6403   -0.2212   -1.4147 H   0  0  0  0  0  0  0  0  0  0  0  0
    2.6840    1.4316    0.1707 H   0  0  0  0  0  0  0  0  0  0  0  0
    2.7791    0.1132    1.4348 H   0  0  0  0  0  0  0  0  0  0  0  0
    4.8755    1.2404    0.8226 H   0  0  0  0  0  0  0  0  0  0  0  0
    5.5428   -0.2991    0.9637 H   0  0  0  0  0  0  0  0  0  0  0  0
  1  2  1  0
  2  3  1  0
  2  4  1  0
  2  5  1  0
  5  6  2  0
  5  7  1  0
  7  8  1  0
  8  9  1  0
  9 10  1  0
 10 11  1  0
  1 12  1  0
  1 13  1  0
  1 14  1  0
  3 15  1  0
  3 16  1  0
  3 17  1  0
  4 18  1  0
  7 19  1  0
  8 20  1  0
  8 21  1  0
  9 22  1  0
  9 23  1  0
 11 24  1  0
 11 25  1  0
M  END
$$$$

     RDKit          3D

 25 24  0  0  0  0  0  0  0  0999 V2000
   -2.6807   -0.3986    1.2367 C   0  0  0  0  0  0  0  0  0  0  0  0
   -2.1517    0.0325   -0.1759 C   0  0  0  0  0  0  0  0  0  0  0  0
   -2.9120    1.2707   -0.5178 C   0  0  0  0  0  0  0  0  0  0  0  0
   -2.3105   -1.0258   -1.0172 O   0  0  0  0  0  0  0  0  0  0  0  0
   -0.7405    0.3370    0.0458 C   0  0  0  0  0  0  0  0  0  0  0  0
   -0.4059    1.6229    0.1918 O   0  0  0  0  0  0  0  0  0  0  0  0
    0.3121   -0.6305    0.1237 N   0  0  0  0  0  0  0  0  0  0  0  0
    1.5948   -0.1884    0.3524 C   0  0  0  0  0  0  0  0  0  0  0  0
    2.8141   -1.0952    0.1207 C   0  0  0  0  0  0  0  0  0  0  0  0
    3.7926   -0.1521    0.5364 O   0  0  0  0  0  0  0  0  0  0  0  0
    4.7015    0.1456   -0.5146 N   0  0  0  0  0  0  0  0  0  0  0  0
   -2.0900    0.2494    1.9557 H   0  0  0  0  0  0  0  0  0  0  0  0
   -3.7464   -0.2353    1.2259 H   0  0  0  0  0  0  0  0  0  0  0  0
   -2.3707   -1.4550    1.3215 H   0  0  0  0  0  0  0  0  0  0  0  0
   -3.0695    1.9136    0.3899 H   0  0  0  0  0  0  0  0  0  0  0  0
   -2.3022    1.8715   -1.2337 H   0  0  0  0  0  0  0  0  0  0  0  0
   -3.8271    0.9657   -1.0266 H   0  0  0  0  0  0  0  0  0  0  0  0
   -2.7691   -0.7840   -1.8879 H   0  0  0  0  0  0  0  0  0  0  0  0
    0.0364   -1.6513    0.0147 H   0  0  0  0  0  0  0  0  0  0  0  0
    1.6348    0.2377    1.4289 H   0  0  0  0  0  0  0  0  0  0  0  0
    1.8236    0.7579   -0.2974 H   0  0  0  0  0  0  0  0  0  0  0  0
    2.8063   -1.9546    0.8224 H   0  0  0  0  0  0  0  0  0  0  0  0
    2.9655   -1.2716   -0.9208 H   0  0  0  0  0  0  0  0  0  0  0  0
    4.1197    0.1326   -1.4394 H   0  0  0  0  0  0  0  0  0  0  0  0
    4.7749    1.3052   -0.3771 H   0  0  0  0  0  0  0  0  0  0  0  0
  1  2  1  0
  2  3  1  0
  2  4  1  0
  2  5  1  0
  5  6  2  0
  5  7  1  0
  7  8  1  0
  8  9  1  0
  9 10  1  0
 10 11  1  0
  1 12  1  0
  1 13  1  0
  1 14  1  0
  3 15  1  0
  3 16  1  0
  3 17  1  0
  4 18  1  0
  7 19  1  0
  8 20  1  0
  8 21  1  0
  9 22  1  0
  9 23  1  0
 11 24  1  0
 11 25  1  0
M  END
$$$$

     RDKit          3D

 25 24  0  0  0  0  0  0  0  0999 V2000
   -2.8537    1.1226   -1.1750 C   0  0  0  0  0  0  0  0  0  0  0  0
   -2.0147    0.6062   -0.0292 C   0  0  0  0  0  0  0  0  0  0  0  0
   -2.8499   -0.1212    1.0011 C   0  0  0  0  0  0  0  0  0  0  0  0
   -1.4516    1.7348    0.5896 O   0  0  0  0  0  0  0  0  0  0  0  0
   -0.9554   -0.3297   -0.4929 C   0  0  0  0  0  0  0  0  0  0  0  0
   -1.3365   -1.3788   -1.0631 O   0  0  0  0  0  0  0  0  0  0  0  0
    0.4315   -0.0877   -0.3195 N   0  0  0  0  0  0  0  0  0  0  0  0
    1.4433   -1.0409   -0.7938 C   0  0  0  0  0  0  0  0  0  0  0  0
    2.8207   -0.5601   -0.4938 C   0  0  0  0  0  0  0  0  0  0  0  0
    2.9552   -0.4083    0.8891 O   0  0  0  0  0  0  0  0  0  0  0  0
    4.1939    0.0287    1.2183 N   0  0  0  0  0  0  0  0  0  0  0  0
   -2.1598    1.5392   -1.9270 H   0  0  0  0  0  0  0  0  0  0  0  0
   -3.4398    1.9883   -0.7801 H   0  0  0  0  0  0  0  0  0  0  0  0
   -3.4819    0.3009   -1.5421 H   0  0  0  0  0  0  0  0  0  0  0  0
   -3.8747   -0.3048    0.5905 H   0  0  0  0  0  0  0  0  0  0  0  0
   -2.8851    0.4062    1.9683 H   0  0  0  0  0  0  0  0  0  0  0  0
   -2.4393   -1.1424    1.2195 H   0  0  0  0  0  0  0  0  0  0  0  0
   -0.9940    1.3674    1.4121 H   0  0  0  0  0  0  0  0  0  0  0  0
    0.6942    0.7994    0.1608 H   0  0  0  0  0  0  0  0  0  0  0  0
    1.2667   -1.2627   -1.8502 H   0  0  0  0  0  0  0  0  0  0  0  0
    1.3060   -2.0142   -0.2458 H   0  0  0  0  0  0  0  0  0  0  0  0
    3.1171    0.3448   -1.0327 H   0  0  0  0  0  0  0  0  0  0  0  0
    3.5320   -1.3594   -0.7850 H   0  0  0  0  0  0  0  0  0  0  0  0
    4.8697   -0.7481    1.3486 H   0  0  0  0  0  0  0  0  0  0  0  0
    4.1061    0.5198    2.1322 H   0  0  0  0  0  0  0  0  0  0  0  0
  1  2  1  0
  2  3  1  0
  2  4  1  0
  2  5  1  0
  5  6  2  0
  5  7  1  0
  7  8  1  0
  8  9  1  0
  9 10  1  0
 10 11  1  0
  1 12  1  0
  1 13  1  0
  1 14  1  0
  3 15  1  0
  3 16  1  0
  3 17  1  0
  4 18  1  0
  7 19  1  0
  8 20  1  0
  8 21  1  0
  9 22  1  0
  9 23  1  0
 11 24  1  0
 11 25  1  0
M  END
$$$$

     RDKit          3D

 25 24  0  0  0  0  0  0  0  0999 V2000
   -2.7502    0.6465    0.8190 C   0  0  0  0  0  0  0  0  0  0  0  0
   -2.0539    0.1198   -0.4121 C   0  0  0  0  0  0  0  0  0  0  0  0
   -2.9165   -0.6595   -1.3469 C   0  0  0  0  0  0  0  0  0  0  0  0
   -1.7280    1.3917   -1.1833 O   0  0  0  0  0  0  0  0  0  0  0  0
   -0.7249   -0.4266   -0.2193 C   0  0  0  0  0  0  0  0  0  0  0  0
   -0.2221   -1.5070   -0.5262 O   0  0  0  0  0  0  0  0  0  0  0  0
    0.1847    0.4242    0.4762 N   0  0  0  0  0  0  0  0  0  0  0  0
    1.4819   -0.2278    0.4815 C   0  0  0  0  0  0  0  0  0  0  0  0
    2.4305    1.0431    0.0733 C   0  0  0  0  0  0  0  0  0  0  0  0
    3.5455    0.4107   -0.0439 O   0  0  0  0  0  0  0  0  0  0  0  0
    4.4780   -0.1301    0.6007 N   0  0  0  0  0  0  0  0  0  0  0  0
   -3.8561    0.4451    0.7266 H   0  0  0  0  0  0  0  0  0  0  0  0
   -2.4055    0.2196    1.7511 H   0  0  0  0  0  0  0  0  0  0  0  0
   -2.6135    1.8073    0.8312 H   0  0  0  0  0  0  0  0  0  0  0  0
   -3.0246   -0.1679   -2.3182 H   0  0  0  0  0  0  0  0  0  0  0  0
   -2.4247   -1.6692   -1.5215 H   0  0  0  0  0  0  0  0  0  0  0  0
   -3.9122   -0.8115   -0.9250 H   0  0  0  0  0  0  0  0  0  0  0  0
   -0.9960    0.8519   -1.7520 H   0  0  0  0  0  0  0  0  0  0  0  0
    0.0761    1.3117    0.8754 H   0  0  0  0  0  0  0  0  0  0  0  0
    1.7425   -0.2693    1.6539 H   0  0  0  0  0  0  0  0  0  0  0  0
    1.7576   -1.0840    0.0040 H   0  0  0  0  0  0  0  0  0  0  0  0
    1.8960    1.5568   -0.6855 H   0  0  0  0  0  0  0  0  0  0  0  0
    2.3808    1.6044    1.0558 H   0  0  0  0  0  0  0  0  0  0  0  0
    5.0010   -0.1049    1.4172 H   0  0  0  0  0  0  0  0  0  0  0  0
    4.6535   -1.1736    0.1683 H   0  0  0  0  0  0  0  0  0  0  0  0
  1  2  1  0
  2  3  1  0
  2  4  1  0
  2  5  1  0
  5  6  2  0
  5  7  1  0
  7  8  1  0
  8  9  1  0
  9 10  1  0
 10 11  1  0
  1 12  1  0
  1 13  1  0
  1 14  1  0
  3 15  1  0
  3 16  1  0
  3 17  1  0
  4 18  1  0
  7 19  1  0
  8 20  1  0
  8 21  1  0
  9 22  1  0
  9 23  1  0
 11 24  1  0
 11 25  1  0
M  END
$$$$

     RDKit          3D

 25 24  0  0  0  0  0  0  0  0999 V2000
   -2.9325    1.0719   -0.5864 C   0  0  0  0  0  0  0  0  0  0  0  0
   -2.0237    0.2857    0.3262 C   0  0  0  0  0  0  0  0  0  0  0  0
   -2.8475   -0.7611    1.0769 C   0  0  0  0  0  0  0  0  0  0  0  0
   -1.4596    1.1043    1.2765 O   0  0  0  0  0  0  0  0  0  0  0  0
   -0.9666   -0.4372   -0.4288 C   0  0  0  0  0  0  0  0  0  0  0  0
   -1.2618   -1.2419   -1.3488 O   0  0  0  0  0  0  0  0  0  0  0  0
    0.4314   -0.2567   -0.1503 N   0  0  0  0  0  0  0  0  0  0  0  0
    1.4493   -0.9731   -0.9000 C   0  0  0  0  0  0  0  0  0  0  0  0
    2.7962   -0.5569   -0.3597 C   0  0  0  0  0  0  0  0  0  0  0  0
    3.0192    0.8056   -0.4876 O   0  0  0  0  0  0  0  0  0  0  0  0
    4.2444    1.0662    0.0238 N   0  0  0  0  0  0  0  0  0  0  0  0
   -2.9864    0.5876   -1.5853 H   0  0  0  0  0  0  0  0  0  0  0  0
   -3.9328    1.0809   -0.1191 H   0  0  0  0  0  0  0  0  0  0  0  0
   -2.5841    2.0914   -0.7331 H   0  0  0  0  0  0  0  0  0  0  0  0
   -3.5056   -1.3328    0.3696 H   0  0  0  0  0  0  0  0  0  0  0  0
   -3.4000   -0.3276    1.9215 H   0  0  0  0  0  0  0  0  0  0  0  0
   -2.0947   -1.4704    1.5077 H   0  0  0  0  0  0  0  0  0  0  0  0
   -1.2971    2.0159    0.9295 H   0  0  0  0  0  0  0  0  0  0  0  0
    0.6542    0.4151    0.6165 H   0  0  0  0  0  0  0  0  0  0  0  0
    1.3590   -0.8311   -1.9788 H   0  0  0  0  0  0  0  0  0  0  0  0
    1.3762   -2.0815   -0.7228 H   0  0  0  0  0  0  0  0  0  0  0  0
    3.5661   -1.1651   -0.8972 H   0  0  0  0  0  0  0  0  0  0  0  0
    2.8367   -0.8462    0.7182 H   0  0  0  0  0  0  0  0  0  0  0  0
    4.7699    1.5712   -0.7463 H   0  0  0  0  0  0  0  0  0  0  0  0
    4.7899    0.1860    0.1794 H   0  0  0  0  0  0  0  0  0  0  0  0
  1  2  1  0
  2  3  1  0
  2  4  1  0
  2  5  1  0
  5  6  2  0
  5  7  1  0
  7  8  1  0
  8  9  1  0
  9 10  1  0
 10 11  1  0
  1 12  1  0
  1 13  1  0
  1 14  1  0
  3 15  1  0
  3 16  1  0
  3 17  1  0
  4 18  1  0
  7 19  1  0
  8 20  1  0
  8 21  1  0
  9 22  1  0
  9 23  1  0
 11 24  1  0
 11 25  1  0
M  END
$$$$

     RDKit          3D

 25 24  0  0  0  0  0  0  0  0999 V2000
   -2.9050    0.0243    1.4434 C   0  0  0  0  0  0  0  0  0  0  0  0
   -2.1778    0.2686    0.1198 C   0  0  0  0  0  0  0  0  0  0  0  0
   -3.0455   -0.1963   -1.0426 C   0  0  0  0  0  0  0  0  0  0  0  0
   -1.9249    1.6067   -0.0602 O   0  0  0  0  0  0  0  0  0  0  0  0
   -0.9407   -0.5542    0.1558 C   0  0  0  0  0  0  0  0  0  0  0  0
   -1.0337   -1.7975    0.3150 O   0  0  0  0  0  0  0  0  0  0  0  0
    0.3577   -0.0153    0.0197 N   0  0  0  0  0  0  0  0  0  0  0  0
    1.5501   -0.8312    0.0572 C   0  0  0  0  0  0  0  0  0  0  0  0
    2.7574    0.0650   -0.1181 C   0  0  0  0  0  0  0  0  0  0  0  0
    3.9327   -0.6964   -0.0864 O   0  0  0  0  0  0  0  0  0  0  0  0
    4.9547    0.1731   -0.2485 N   0  0  0  0  0  0  0  0  0  0  0  0
   -3.9659    0.2799    1.2621 H   0  0  0  0  0  0  0  0  0  0  0  0
   -2.8456   -1.0352    1.7320 H   0  0  0  0  0  0  0  0  0  0  0  0
   -2.5471    0.7212    2.2311 H   0  0  0  0  0  0  0  0  0  0  0  0
   -3.3666    0.6501   -1.6817 H   0  0  0  0  0  0  0  0  0  0  0  0
   -3.9703   -0.6843   -0.6301 H   0  0  0  0  0  0  0  0  0  0  0  0
   -2.5232   -0.9815   -1.6141 H   0  0  0  0  0  0  0  0  0  0  0  0
   -1.2504    1.9779    0.5616 H   0  0  0  0  0  0  0  0  0  0  0  0
    0.4505    1.0058   -0.1118 H   0  0  0  0  0  0  0  0  0  0  0  0
    1.6276   -1.4377    0.9696 H   0  0  0  0  0  0  0  0  0  0  0  0
    1.5004   -1.5144   -0.8265 H   0  0  0  0  0  0  0  0  0  0  0  0
    2.6976    0.6593   -1.0514 H   0  0  0  0  0  0  0  0  0  0  0  0
    2.7421    0.8008    0.7176 H   0  0  0  0  0  0  0  0  0  0  0  0
    4.7374    0.8321   -1.0358 H   0  0  0  0  0  0  0  0  0  0  0  0
    5.1885    0.6793    0.6360 H   0  0  0  0  0  0  0  0  0  0  0  0
  1  2  1  0
  2  3  1  0
  2  4  1  0
  2  5  1  0
  5  6  2  0
  5  7  1  0
  7  8  1  0
  8  9  1  0
  9 10  1  0
 10 11  1  0
  1 12  1  0
  1 13  1  0
  1 14  1  0
  3 15  1  0
  3 16  1  0
  3 17  1  0
  4 18  1  0
  7 19  1  0
  8 20  1  0
  8 21  1  0
  9 22  1  0
  9 23  1  0
 11 24  1  0
 11 25  1  0
M  END
$$$$

     RDKit          3D

 25 24  0  0  0  0  0  0  0  0999 V2000
   -2.6780    1.2796    0.3419 C   0  0  0  0  0  0  0  0  0  0  0  0
   -2.2339    0.0025   -0.1608 C   0  0  0  0  0  0  0  0  0  0  0  0
   -2.7773   -1.0799    0.8287 C   0  0  0  0  0  0  0  0  0  0  0  0
   -2.8930   -0.3688   -1.3901 O   0  0  0  0  0  0  0  0  0  0  0  0
   -0.8343   -0.1874   -0.3733 C   0  0  0  0  0  0  0  0  0  0  0  0
   -0.5112   -1.2849   -1.0162 O   0  0  0  0  0  0  0  0  0  0  0  0
    0.2905    0.5818   -0.0672 N   0  0  0  0  0  0  0  0  0  0  0  0
    1.5937    0.2718   -0.3562 C   0  0  0  0  0  0  0  0  0  0  0  0
    2.4396   -0.6983    0.3991 C   0  0  0  0  0  0  0  0  0  0  0  0
    3.6398   -0.6695   -0.3358 O   0  0  0  0  0  0  0  0  0  0  0  0
    4.7063   -0.0420    0.3337 N   0  0  0  0  0  0  0  0  0  0  0  0
   -1.9470    2.1191    0.2196 H   0  0  0  0  0  0  0  0  0  0  0  0
   -3.5728    1.6316   -0.2093 H   0  0  0  0  0  0  0  0  0  0  0  0
   -3.0459    1.2129    1.4126 H   0  0  0  0  0  0  0  0  0  0  0  0
   -3.9093   -0.9823    0.8214 H   0  0  0  0  0  0  0  0  0  0  0  0
   -2.5029   -2.0996    0.4853 H   0  0  0  0  0  0  0  0  0  0  0  0
   -2.4373   -0.8237    1.8386 H   0  0  0  0  0  0  0  0  0  0  0  0
   -2.2809    0.0627   -2.0872 H   0  0  0  0  0  0  0  0  0  0  0  0
    0.0037    1.4951    0.4464 H   0  0  0  0  0  0  0  0  0  0  0  0
    1.6967   -0.0630   -1.4696 H   0  0  0  0  0  0  0  0  0  0  0  0
    2.2371    1.2280   -0.3671 H   0  0  0  0  0  0  0  0  0  0  0  0
    2.0503   -1.7521    0.2972 H   0  0  0  0  0  0  0  0  0  0  0  0
    2.6234   -0.4186    1.4258 H   0  0  0  0  0  0  0  0  0  0  0  0
    5.6328   -0.3810   -0.0435 H   0  0  0  0  0  0  0  0  0  0  0  0
    4.7096    0.9658   -0.1749 H   0  0  0  0  0  0  0  0  0  0  0  0
  1  2  1  0
  2  3  1  0
  2  4  1  0
  2  5  1  0
  5  6  2  0
  5  7  1  0
  7  8  1  0
  8  9  1  0
  9 10  1  0
 10 11  1  0
  1 12  1  0
  1 13  1  0
  1 14  1  0
  3 15  1  0
  3 16  1  0
  3 17  1  0
  4 18  1  0
  7 19  1  0
  8 20  1  0
  8 21  1  0
  9 22  1  0
  9 23  1  0
 11 24  1  0
 11 25  1  0
M  END
$$$$
