
     RDKit          3D

 20 20  0  0  0  0  0  0  0  0999 V2000
    3.6121    0.6952   -0.3499 O   0  0  0  0  0  0  0  0  0  0  0  0
    3.2580   -0.1284    0.5574 C   0  0  0  0  0  0  0  0  0  0  0  0
    4.2721   -0.6716    1.3337 O   0  0  0  0  0  0  0  0  0  0  0  0
    1.8615   -0.4748    0.7609 C   0  0  0  0  0  0  0  0  0  0  0  0
    1.5754   -1.2797    1.6560 O   0  0  0  0  0  0  0  0  0  0  0  0
    0.8397    0.0680   -0.0161 N   0  0  0  0  0  0  0  0  0  0  0  0
   -0.5538   -0.1986    0.0951 C   0  0  1  0  0  0  0  0  0  0  0  0
   -1.3075    1.0820    0.4115 C   0  0  0  0  0  0  0  0  0  0  0  0
   -2.2611    0.7773   -0.7212 C   0  0  2  0  0  0  0  0  0  0  0  0
   -3.5512    0.4944   -0.3426 O   0  0  0  0  0  0  0  0  0  0  0  0
   -1.4009   -0.4214   -1.0615 C   0  0  0  0  0  0  0  0  0  0  0  0
    5.2622   -0.5600    1.1217 H   0  0  0  0  0  0  0  0  0  0  0  0
    1.1162    0.7544   -0.7746 H   0  0  0  0  0  0  0  0  0  0  0  0
   -0.7452   -0.9325    0.9212 H   0  0  0  0  0  0  0  0  0  0  0  0
   -1.7687    1.1196    1.4162 H   0  0  0  0  0  0  0  0  0  0  0  0
   -0.7225    2.0035    0.2489 H   0  0  0  0  0  0  0  0  0  0  0  0
   -2.2490    1.5907   -1.4976 H   0  0  0  0  0  0  0  0  0  0  0  0
   -4.1785    1.1614   -0.6723 H   0  0  0  0  0  0  0  0  0  0  0  0
   -2.0441   -1.3434   -1.0046 H   0  0  0  0  0  0  0  0  0  0  0  0
   -1.0147   -0.3286   -2.0822 H   0  0  0  0  0  0  0  0  0  0  0  0
  1  2  2  0
  2  3  1  0
  2  4  1  0
  4  5  2  0
  4  6  1  0
  6  7  1  0
  7  8  1  0
  8  9  1  0
  9 10  1  0
  9 11  1  0
 11  7  1  0
  3 12  1  0
  6 13  1  0
  7 14  1  1
  8 15  1  0
  8 16  1  0
  9 17  1  6
 10 18  1  0
 11 19  1  0
 11 20  1  0
M  END
$$$$

     RDKit          3D

 20 20  0  0  0  0  0  0  0  0999 V2000
    3.4158    0.1623   -1.1168 O   0  0  0  0  0  0  0  0  0  0  0  0
    3.2895   -0.5002   -0.0557 C   0  0  0  0  0  0  0  0  0  0  0  0
    4.3984   -1.0394    0.5338 O   0  0  0  0  0  0  0  0  0  0  0  0
    1.9345   -0.6497    0.4840 C   0  0  0  0  0  0  0  0  0  0  0  0
    1.7480   -1.3039    1.5459 O   0  0  0  0  0  0  0  0  0  0  0  0
    0.8072   -0.0807   -0.1479 N   0  0  0  0  0  0  0  0  0  0  0  0
   -0.5467   -0.2023    0.3480 C   0  0  1  0  0  0  0  0  0  0  0  0
   -1.2105    1.1535    0.4369 C   0  0  0  0  0  0  0  0  0  0  0  0
   -2.3961    0.6087   -0.3314 C   0  0  2  0  0  0  0  0  0  0  0  0
   -3.4588    0.3981    0.5344 O   0  0  0  0  0  0  0  0  0  0  0  0
   -1.5737   -0.5944   -0.6794 C   0  0  0  0  0  0  0  0  0  0  0  0
    5.1405   -1.4067   -0.0602 H   0  0  0  0  0  0  0  0  0  0  0  0
    0.9588    0.4574   -1.0209 H   0  0  0  0  0  0  0  0  0  0  0  0
   -0.6736   -0.7756    1.2701 H   0  0  0  0  0  0  0  0  0  0  0  0
   -0.6698    1.9276   -0.1383 H   0  0  0  0  0  0  0  0  0  0  0  0
   -1.4390    1.5035    1.4533 H   0  0  0  0  0  0  0  0  0  0  0  0
   -2.6721    1.2287   -1.2096 H   0  0  0  0  0  0  0  0  0  0  0  0
   -3.7113    1.2830    0.9073 H   0  0  0  0  0  0  0  0  0  0  0  0
   -2.1294   -1.5231   -0.4248 H   0  0  0  0  0  0  0  0  0  0  0  0
   -1.2117   -0.6470   -1.7224 H   0  0  0  0  0  0  0  0  0  0  0  0
  1  2  2  0
  2  3  1  0
  2  4  1  0
  4  5  2  0
  4  6  1  0
  6  7  1  0
  7  8  1  0
  8  9  1  0
  9 10  1  0
  9 11  1  0
 11  7  1  0
  3 12  1  0
  6 13  1  0
  7 14  1  1
  8 15  1  0
  8 16  1  0
  9 17  1  6
 10 18  1  0
 11 19  1  0
 11 20  1  0
M  END
$$$$

     RDKit          3D

 20 20  0  0  0  0  0  0  0  0999 V2000
    3.1746   -0.3554    1.4286 O   0  0  0  0  0  0  0  0  0  0  0  0
    3.1873   -0.2035    0.1826 C   0  0  0  0  0  0  0  0  0  0  0  0
    4.4200   -0.1915   -0.4479 O   0  0  0  0  0  0  0  0  0  0  0  0
    1.9452   -0.0472   -0.5574 C   0  0  0  0  0  0  0  0  0  0  0  0
    2.0083    0.1040   -1.8195 O   0  0  0  0  0  0  0  0  0  0  0  0
    0.6777   -0.0591    0.0876 N   0  0  0  0  0  0  0  0  0  0  0  0
   -0.4932    0.1042   -0.7404 C   0  0  1  0  0  0  0  0  0  0  0  0
   -1.4777   -1.0285   -0.4202 C   0  0  0  0  0  0  0  0  0  0  0  0
   -2.0624   -0.0971    0.6359 C   0  0  2  0  0  0  0  0  0  0  0  0
   -3.4441   -0.1874    0.6949 O   0  0  0  0  0  0  0  0  0  0  0  0
   -1.5328    1.0554   -0.1979 C   0  0  0  0  0  0  0  0  0  0  0  0
    5.2385    0.2186    0.0113 H   0  0  0  0  0  0  0  0  0  0  0  0
    0.6416   -0.1833    1.1170 H   0  0  0  0  0  0  0  0  0  0  0  0
   -0.2856    0.2243   -1.8088 H   0  0  0  0  0  0  0  0  0  0  0  0
   -0.9969   -1.9205   -0.0071 H   0  0  0  0  0  0  0  0  0  0  0  0
   -2.1586   -1.1754   -1.2717 H   0  0  0  0  0  0  0  0  0  0  0  0
   -1.5455   -0.1549    1.6001 H   0  0  0  0  0  0  0  0  0  0  0  0
   -3.8841    0.6883    0.8153 H   0  0  0  0  0  0  0  0  0  0  0  0
   -2.2615    1.3010   -0.9987 H   0  0  0  0  0  0  0  0  0  0  0  0
   -1.1508    1.9081    0.3687 H   0  0  0  0  0  0  0  0  0  0  0  0
  1  2  2  0
  2  3  1  0
  2  4  1  0
  4  5  2  0
  4  6  1  0
  6  7  1  0
  7  8  1  0
  8  9  1  0
  9 10  1  0
  9 11  1  0
 11  7  1  0
  3 12  1  0
  6 13  1  0
  7 14  1  6
  8 15  1  0
  8 16  1  0
  9 17  1  1
 10 18  1  0
 11 19  1  0
 11 20  1  0
M  END
$$$$

     RDKit          3D

 20 20  0  0  0  0  0  0  0  0999 V2000
    3.3744   -1.3931   -0.4014 O   0  0  0  0  0  0  0  0  0  0  0  0
    3.2551   -0.1785   -0.1142 C   0  0  0  0  0  0  0  0  0  0  0  0
    4.4050    0.5741    0.0217 O   0  0  0  0  0  0  0  0  0  0  0  0
    1.9077    0.3471    0.0545 C   0  0  0  0  0  0  0  0  0  0  0  0
    1.7889    1.5678    0.3431 O   0  0  0  0  0  0  0  0  0  0  0  0
    0.7357   -0.4039   -0.0803 N   0  0  0  0  0  0  0  0  0  0  0  0
   -0.5413    0.1882    0.1016 C   0  0  1  0  0  0  0  0  0  0  0  0
   -1.5665   -0.0589   -0.9888 C   0  0  0  0  0  0  0  0  0  0  0  0
   -2.5932   -0.0151    0.1389 C   0  0  2  0  0  0  0  0  0  0  0  0
   -2.8465    1.3381    0.4463 O   0  0  0  0  0  0  0  0  0  0  0  0
   -1.4947   -0.6014    1.0054 C   0  0  0  0  0  0  0  0  0  0  0  0
    5.3257    0.1563    0.0536 H   0  0  0  0  0  0  0  0  0  0  0  0
    0.7911   -1.4121   -0.3172 H   0  0  0  0  0  0  0  0  0  0  0  0
   -0.5200    1.2643    0.3517 H   0  0  0  0  0  0  0  0  0  0  0  0
   -1.5295   -1.1006   -1.3774 H   0  0  0  0  0  0  0  0  0  0  0  0
   -1.6707    0.7389   -1.7329 H   0  0  0  0  0  0  0  0  0  0  0  0
   -3.4748   -0.6384    0.0004 H   0  0  0  0  0  0  0  0  0  0  0  0
   -2.4423    1.5688    1.3363 H   0  0  0  0  0  0  0  0  0  0  0  0
   -1.4121   -1.6736    0.8240 H   0  0  0  0  0  0  0  0  0  0  0  0
   -1.4919   -0.2678    2.0575 H   0  0  0  0  0  0  0  0  0  0  0  0
  1  2  2  0
  2  3  1  0
  2  4  1  0
  4  5  2  0
  4  6  1  0
  6  7  1  0
  7  8  1  0
  8  9  1  0
  9 10  1  0
  9 11  1  0
 11  7  1  0
  3 12  1  0
  6 13  1  0
  7 14  1  1
  8 15  1  0
  8 16  1  0
  9 17  1  6
 10 18  1  0
 11 19  1  0
 11 20  1  0
M  END
$$$$

     RDKit          3D

 20 20  0  0  0  0  0  0  0  0999 V2000
    3.6272   -0.4685    0.5637 O   0  0  0  0  0  0  0  0  0  0  0  0
    3.1681   -0.6089   -0.5890 C   0  0  0  0  0  0  0  0  0  0  0  0
    4.0427   -0.9910   -1.5985 O   0  0  0  0  0  0  0  0  0  0  0  0
    1.7649   -0.3916   -0.9218 C   0  0  0  0  0  0  0  0  0  0  0  0
    1.3051   -0.5313   -2.0713 O   0  0  0  0  0  0  0  0  0  0  0  0
    0.8702   -0.0013    0.1078 N   0  0  0  0  0  0  0  0  0  0  0  0
   -0.5230    0.2298   -0.1470 C   0  0  1  0  0  0  0  0  0  0  0  0
   -1.3991   -0.5970    0.8078 C   0  0  0  0  0  0  0  0  0  0  0  0
   -2.3872    0.5633    0.6594 C   0  0  2  0  0  0  0  0  0  0  0  0
   -2.9995    0.5046   -0.5758 O   0  0  0  0  0  0  0  0  0  0  0  0
   -1.1252    1.4295    0.5656 C   0  0  0  0  0  0  0  0  0  0  0  0
    4.8086   -1.6405   -1.4063 H   0  0  0  0  0  0  0  0  0  0  0  0
    1.2146    0.1256    1.0788 H   0  0  0  0  0  0  0  0  0  0  0  0
   -0.8607    0.0878   -1.1850 H   0  0  0  0  0  0  0  0  0  0  0  0
   -0.9271   -0.6427    1.8142 H   0  0  0  0  0  0  0  0  0  0  0  0
   -1.7532   -1.5392    0.3924 H   0  0  0  0  0  0  0  0  0  0  0  0
   -3.0160    0.7501    1.5260 H   0  0  0  0  0  0  0  0  0  0  0  0
   -3.9140    0.1698   -0.5664 H   0  0  0  0  0  0  0  0  0  0  0  0
   -0.6676    1.5165    1.5706 H   0  0  0  0  0  0  0  0  0  0  0  0
   -1.2287    2.3314   -0.0252 H   0  0  0  0  0  0  0  0  0  0  0  0
  1  2  2  0
  2  3  1  0
  2  4  1  0
  4  5  2  0
  4  6  1  0
  6  7  1  0
  7  8  1  0
  8  9  1  0
  9 10  1  0
  9 11  1  0
 11  7  1  0
  3 12  1  0
  6 13  1  0
  7 14  1  6
  8 15  1  0
  8 16  1  0
  9 17  1  1
 10 18  1  0
 11 19  1  0
 11 20  1  0
M  END
$$$$

     RDKit          3D

 20 20  0  0  0  0  0  0  0  0999 V2000
   -3.4802    0.5996    0.9487 O   0  0  0  0  0  0  0  0  0  0  0  0
   -3.2664   -0.4082    0.2296 C   0  0  0  0  0  0  0  0  0  0  0  0
   -4.3293   -1.1640   -0.2394 O   0  0  0  0  0  0  0  0  0  0  0  0
   -1.8916   -0.7717   -0.1042 C   0  0  0  0  0  0  0  0  0  0  0  0
   -1.6328   -1.7682   -0.8179 O   0  0  0  0  0  0  0  0  0  0  0  0
   -0.8066   -0.0048    0.3715 N   0  0  0  0  0  0  0  0  0  0  0  0
    0.5726   -0.2777    0.1010 C   0  0  1  0  0  0  0  0  0  0  0  0
    1.2446    1.0096   -0.3987 C   0  0  0  0  0  0  0  0  0  0  0  0
    2.4655    0.5863    0.3968 C   0  0  2  0  0  0  0  0  0  0  0  0
    3.2775   -0.2277   -0.4017 O   0  0  0  0  0  0  0  0  0  0  0  0
    1.5097   -0.2319    1.2758 C   0  0  0  0  0  0  0  0  0  0  0  0
   -5.2846   -0.8079   -0.2692 H   0  0  0  0  0  0  0  0  0  0  0  0
   -1.0260    0.8276    0.9678 H   0  0  0  0  0  0  0  0  0  0  0  0
    0.7571   -1.1591   -0.5277 H   0  0  0  0  0  0  0  0  0  0  0  0
    0.7679    1.9010    0.0460 H   0  0  0  0  0  0  0  0  0  0  0  0
    1.3376    0.9697   -1.4840 H   0  0  0  0  0  0  0  0  0  0  0  0
    2.9581    1.4153    0.8988 H   0  0  0  0  0  0  0  0  0  0  0  0
    3.6499    0.3269   -1.1367 H   0  0  0  0  0  0  0  0  0  0  0  0
    1.1911    0.3830    2.1272 H   0  0  0  0  0  0  0  0  0  0  0  0
    1.9859   -1.1977    1.5141 H   0  0  0  0  0  0  0  0  0  0  0  0
  1  2  2  0
  2  3  1  0
  2  4  1  0
  4  5  2  0
  4  6  1  0
  6  7  1  0
  7  8  1  0
  8  9  1  0
  9 10  1  0
  9 11  1  0
 11  7  1  0
  3 12  1  0
  6 13  1  0
  7 14  1  6
  8 15  1  0
  8 16  1  0
  9 17  1  1
 10 18  1  0
 11 19  1  0
 11 20  1  0
M  END
$$$$

     RDKit          3D

 20 20  0  0  0  0  0  0  0  0999 V2000
    2.9894    1.8841    0.0192 O   0  0  0  0  0  0  0  0  0  0  0  0
    3.1518    0.6311    0.0493 C   0  0  0  0  0  0  0  0  0  0  0  0
    4.4354    0.1332    0.1468 O   0  0  0  0  0  0  0  0  0  0  0  0
    2.0253   -0.2762   -0.0160 C   0  0  0  0  0  0  0  0  0  0  0  0
    2.1984   -1.5079    0.0146 O   0  0  0  0  0  0  0  0  0  0  0  0
    0.6963    0.2205   -0.1166 N   0  0  0  0  0  0  0  0  0  0  0  0
   -0.4346   -0.6808   -0.1824 C   0  0  1  0  0  0  0  0  0  0  0  0
   -1.5637   -0.3143    0.7562 C   0  0  0  0  0  0  0  0  0  0  0  0
   -2.1693    0.4911   -0.3762 C   0  0  2  0  0  0  0  0  0  0  0  0
   -3.5339    0.3276   -0.4719 O   0  0  0  0  0  0  0  0  0  0  0  0
   -1.3878   -0.3722   -1.3371 C   0  0  0  0  0  0  0  0  0  0  0  0
    5.2021    0.7426   -0.1344 H   0  0  0  0  0  0  0  0  0  0  0  0
    0.5260    1.2455   -0.1439 H   0  0  0  0  0  0  0  0  0  0  0  0
   -0.1061   -1.7324   -0.1435 H   0  0  0  0  0  0  0  0  0  0  0  0
   -2.1902   -1.2048    0.9547 H   0  0  0  0  0  0  0  0  0  0  0  0
   -1.2780    0.2817    1.6397 H   0  0  0  0  0  0  0  0  0  0  0  0
   -1.9011    1.5675   -0.3843 H   0  0  0  0  0  0  0  0  0  0  0  0
   -3.8777   -0.3320    0.1680 H   0  0  0  0  0  0  0  0  0  0  0  0
   -0.8726    0.1833   -2.1596 H   0  0  0  0  0  0  0  0  0  0  0  0
   -1.9096   -1.2876   -1.6367 H   0  0  0  0  0  0  0  0  0  0  0  0
  1  2  2  0
  2  3  1  0
  2  4  1  0
  4  5  2  0
  4  6  1  0
  6  7  1  0
  7  8  1  0
  8  9  1  0
  9 10  1  0
  9 11  1  0
 11  7  1  0
  3 12  1  0
  6 13  1  0
  7 14  1  1
  8 15  1  0
  8 16  1  0
  9 17  1  1
 10 18  1  0
 11 19  1  0
 11 20  1  0
M  END
$$$$

     RDKit          3D

 20 20  0  0  0  0  0  0  0  0999 V2000
    3.0377   -1.3618   -1.1717 O   0  0  0  0  0  0  0  0  0  0  0  0
    3.1657   -0.2882   -0.5316 C   0  0  0  0  0  0  0  0  0  0  0  0
    4.4202    0.2616   -0.3866 O   0  0  0  0  0  0  0  0  0  0  0  0
    2.0267    0.3853    0.0575 C   0  0  0  0  0  0  0  0  0  0  0  0
    2.1951    1.4476    0.6845 O   0  0  0  0  0  0  0  0  0  0  0  0
    0.7239   -0.1561   -0.0750 N   0  0  0  0  0  0  0  0  0  0  0  0
   -0.4222    0.4964    0.5023 C   0  0  1  0  0  0  0  0  0  0  0  0
   -1.4572    0.7644   -0.5634 C   0  0  0  0  0  0  0  0  0  0  0  0
   -2.2133   -0.4427   -0.0868 C   0  0  2  0  0  0  0  0  0  0  0  0
   -3.5558   -0.1766    0.1937 O   0  0  0  0  0  0  0  0  0  0  0  0
   -1.3977   -0.4038    1.1817 C   0  0  0  0  0  0  0  0  0  0  0  0
    5.1839    0.0268   -1.0075 H   0  0  0  0  0  0  0  0  0  0  0  0
    0.6060   -1.0382   -0.5990 H   0  0  0  0  0  0  0  0  0  0  0  0
   -0.1919    1.4297    1.0405 H   0  0  0  0  0  0  0  0  0  0  0  0
   -2.0362    1.6794   -0.4577 H   0  0  0  0  0  0  0  0  0  0  0  0
   -1.0983    0.6462   -1.6035 H   0  0  0  0  0  0  0  0  0  0  0  0
   -2.0765   -1.3541   -0.7035 H   0  0  0  0  0  0  0  0  0  0  0  0
   -4.0720   -1.0024   -0.0053 H   0  0  0  0  0  0  0  0  0  0  0  0
   -0.9465   -1.3605    1.4976 H   0  0  0  0  0  0  0  0  0  0  0  0
   -1.8914    0.0871    2.0339 H   0  0  0  0  0  0  0  0  0  0  0  0
  1  2  2  0
  2  3  1  0
  2  4  1  0
  4  5  2  0
  4  6  1  0
  6  7  1  0
  7  8  1  0
  8  9  1  0
  9 10  1  0
  9 11  1  0
 11  7  1  0
  3 12  1  0
  6 13  1  0
  7 14  1  1
  8 15  1  0
  8 16  1  0
  9 17  1  6
 10 18  1  0
 11 19  1  0
 11 20  1  0
M  END
$$$$
