
     RDKit          3D

 27 27  0  0  0  0  0  0  0  0999 V2000
   -3.4773    0.7630   -0.6534 C   0  0  0  0  0  0  0  0  0  0  0  0
   -2.9531   -0.6472   -0.5205 C   0  0  2  0  0  0  0  0  0  0  0  0
   -3.9171   -1.4296    0.2142 N   0  0  0  0  0  0  0  0  0  0  0  0
   -1.6546   -0.7223    0.1432 C   0  0  0  0  0  0  0  0  0  0  0  0
   -1.5316   -1.4024    1.1915 O   0  0  0  0  0  0  0  0  0  0  0  0
   -0.4764   -0.0633   -0.3191 N   0  0  0  0  0  0  0  0  0  0  0  0
    0.7987   -0.1255    0.3159 C   0  0  2  0  0  0  0  0  0  0  0  0
    1.3268    1.2422    0.7101 C   0  0  0  0  0  0  0  0  0  0  0  0
    2.7808    0.9547    0.8011 C   0  0  0  0  0  0  0  0  0  0  0  0
    3.6231    1.6157    1.4528 O   0  0  0  0  0  0  0  0  0  0  0  0
    3.0965   -0.1981    0.0318 N   0  0  0  0  0  0  0  0  0  0  0  0
    4.4190   -0.8234   -0.1122 C   0  0  0  0  0  0  0  0  0  0  0  0
    1.8778   -0.6224   -0.5682 C   0  0  0  0  0  0  0  0  0  0  0  0
    1.8175   -1.2844   -1.6374 O   0  0  0  0  0  0  0  0  0  0  0  0
   -3.2172    1.2164   -1.6308 H   0  0  0  0  0  0  0  0  0  0  0  0
   -4.5852    0.7078   -0.6219 H   0  0  0  0  0  0  0  0  0  0  0  0
   -3.1316    1.3449    0.2110 H   0  0  0  0  0  0  0  0  0  0  0  0
   -2.8697   -1.0661   -1.5525 H   0  0  0  0  0  0  0  0  0  0  0  0
   -4.8609   -0.9674    0.1817 H   0  0  0  0  0  0  0  0  0  0  0  0
   -3.6659   -1.5437    1.2279 H   0  0  0  0  0  0  0  0  0  0  0  0
   -0.5669    0.5044   -1.1889 H   0  0  0  0  0  0  0  0  0  0  0  0
    0.8192   -0.7436    1.2296 H   0  0  0  0  0  0  0  0  0  0  0  0
    0.8941    1.5746    1.6561 H   0  0  0  0  0  0  0  0  0  0  0  0
    1.1959    1.9799   -0.1160 H   0  0  0  0  0  0  0  0  0  0  0  0
    4.8134   -0.6498   -1.1317 H   0  0  0  0  0  0  0  0  0  0  0  0
    5.0748   -0.4055    0.6617 H   0  0  0  0  0  0  0  0  0  0  0  0
    4.3698   -1.9175    0.0239 H   0  0  0  0  0  0  0  0  0  0  0  0
  1  2  1  0
  2  3  1  0
  2  4  1  0
  4  5  2  0
  4  6  1  0
  6  7  1  0
  7  8  1  0
  8  9  1  0
  9 10  2  0
  9 11  1  0
 11 12  1  0
 11 13  1  0
 13 14  2  0
 13  7  1  0
  1 15  1  0
  1 16  1  0
  1 17  1  0
  2 18  1  6
  3 19  1  0
  3 20  1  0
  6 21  1  0
  7 22  1  1
  8 23  1  0
  8 24  1  0
 12 25  1  0
 12 26  1  0
 12 27  1  0
M  END
$$$$

     RDKit          3D

 27 27  0  0  0  0  0  0  0  0999 V2000
    3.9098    0.1475   -0.9250 C   0  0  0  0  0  0  0  0  0  0  0  0
    3.0492    0.0865    0.2943 C   0  0  2  0  0  0  0  0  0  0  0  0
    3.0884   -1.2361    0.8308 N   0  0  0  0  0  0  0  0  0  0  0  0
    1.6781    0.5962    0.0846 C   0  0  0  0  0  0  0  0  0  0  0  0
    1.5044    1.7504   -0.3837 O   0  0  0  0  0  0  0  0  0  0  0  0
    0.5008   -0.1348    0.3785 N   0  0  0  0  0  0  0  0  0  0  0  0
   -0.8122    0.3580    0.1758 C   0  0  2  0  0  0  0  0  0  0  0  0
   -1.6542    0.4709    1.4127 C   0  0  0  0  0  0  0  0  0  0  0  0
   -2.9950    0.7278    0.8059 C   0  0  0  0  0  0  0  0  0  0  0  0
   -3.9015    1.4705    1.2667 O   0  0  0  0  0  0  0  0  0  0  0  0
   -3.0035   -0.0542   -0.3973 N   0  0  0  0  0  0  0  0  0  0  0  0
   -4.2114   -0.3904   -1.1270 C   0  0  0  0  0  0  0  0  0  0  0  0
   -1.6584   -0.4208   -0.7234 C   0  0  0  0  0  0  0  0  0  0  0  0
   -1.3986   -1.2563   -1.6232 O   0  0  0  0  0  0  0  0  0  0  0  0
    3.8146   -0.7686   -1.5138 H   0  0  0  0  0  0  0  0  0  0  0  0
    3.5402    1.0101   -1.5481 H   0  0  0  0  0  0  0  0  0  0  0  0
    4.9584    0.4035   -0.6704 H   0  0  0  0  0  0  0  0  0  0  0  0
    3.5215    0.7653    1.0625 H   0  0  0  0  0  0  0  0  0  0  0  0
    3.7995   -1.3745    1.5769 H   0  0  0  0  0  0  0  0  0  0  0  0
    3.0241   -1.9989    0.1447 H   0  0  0  0  0  0  0  0  0  0  0  0
    0.6129   -1.0962    0.7686 H   0  0  0  0  0  0  0  0  0  0  0  0
   -0.7253    1.3976   -0.2456 H   0  0  0  0  0  0  0  0  0  0  0  0
   -1.3268    1.3104    2.0341 H   0  0  0  0  0  0  0  0  0  0  0  0
   -1.7532   -0.4810    1.9614 H   0  0  0  0  0  0  0  0  0  0  0  0
   -4.3947    0.4597   -1.8398 H   0  0  0  0  0  0  0  0  0  0  0  0
   -5.0803   -0.4224   -0.4589 H   0  0  0  0  0  0  0  0  0  0  0  0
   -4.0870   -1.3201   -1.7157 H   0  0  0  0  0  0  0  0  0  0  0  0
  1  2  1  0
  2  3  1  0
  2  4  1  0
  4  5  2  0
  4  6  1  0
  6  7  1  0
  7  8  1  0
  8  9  1  0
  9 10  2  0
  9 11  1  0
 11 12  1  0
 11 13  1  0
 13 14  2  0
 13  7  1  0
  1 15  1  0
  1 16  1  0
  1 17  1  0
  2 18  1  1
  3 19  1  0
  3 20  1  0
  6 21  1  0
  7 22  1  6
  8 23  1  0
  8 24  1  0
 12 25  1  0
 12 26  1  0
 12 27  1  0
M  END
$$$$

     RDKit          3D

 27 27  0  0  0  0  0  0  0  0999 V2000
   -3.7584    0.8632   -1.1947 C   0  0  0  0  0  0  0  0  0  0  0  0
   -3.1344   -0.0883   -0.2148 C   0  0  2  0  0  0  0  0  0  0  0  0
   -3.0968    0.4954    1.0859 N   0  0  0  0  0  0  0  0  0  0  0  0
   -1.7628   -0.4156   -0.7234 C   0  0  0  0  0  0  0  0  0  0  0  0
   -1.6258   -0.9365   -1.8583 O   0  0  0  0  0  0  0  0  0  0  0  0
   -0.5892   -0.1644    0.0207 N   0  0  0  0  0  0  0  0  0  0  0  0
    0.7127   -0.4803   -0.4739 C   0  0  2  0  0  0  0  0  0  0  0  0
    1.3953   -1.3893    0.5577 C   0  0  0  0  0  0  0  0  0  0  0  0
    2.8134   -1.2539    0.1345 C   0  0  0  0  0  0  0  0  0  0  0  0
    3.6710   -2.1700    0.1886 O   0  0  0  0  0  0  0  0  0  0  0  0
    2.9482    0.0891   -0.3188 N   0  0  0  0  0  0  0  0  0  0  0  0
    4.2404    0.7116   -0.5751 C   0  0  0  0  0  0  0  0  0  0  0  0
    1.6440    0.6731   -0.4648 C   0  0  0  0  0  0  0  0  0  0  0  0
    1.4469    1.8951   -0.5556 O   0  0  0  0  0  0  0  0  0  0  0  0
   -3.2991    0.7611   -2.2098 H   0  0  0  0  0  0  0  0  0  0  0  0
   -3.6734    1.8824   -0.8132 H   0  0  0  0  0  0  0  0  0  0  0  0
   -4.8421    0.5950   -1.2692 H   0  0  0  0  0  0  0  0  0  0  0  0
   -3.7186   -1.0531   -0.1717 H   0  0  0  0  0  0  0  0  0  0  0  0
   -2.9726    1.5114    1.1085 H   0  0  0  0  0  0  0  0  0  0  0  0
   -2.5295    0.0011    1.7821 H   0  0  0  0  0  0  0  0  0  0  0  0
   -0.6790    0.2673    0.9651 H   0  0  0  0  0  0  0  0  0  0  0  0
    0.7384   -0.9278   -1.4641 H   0  0  0  0  0  0  0  0  0  0  0  0
    1.0237   -2.4194    0.5030 H   0  0  0  0  0  0  0  0  0  0  0  0
    1.2893   -0.9124    1.5429 H   0  0  0  0  0  0  0  0  0  0  0  0
    4.7689    0.0133   -1.2828 H   0  0  0  0  0  0  0  0  0  0  0  0
    4.8681    0.7457    0.3365 H   0  0  0  0  0  0  0  0  0  0  0  0
    4.1213    1.7061   -1.0427 H   0  0  0  0  0  0  0  0  0  0  0  0
  1  2  1  0
  2  3  1  0
  2  4  1  0
  4  5  2  0
  4  6  1  0
  6  7  1  0
  7  8  1  0
  8  9  1  0
  9 10  2  0
  9 11  1  0
 11 12  1  0
 11 13  1  0
 13 14  2  0
 13  7  1  0
  1 15  1  0
  1 16  1  0
  1 17  1  0
  2 18  1  1
  3 19  1  0
  3 20  1  0
  6 21  1  0
  7 22  1  6
  8 23  1  0
  8 24  1  0
 12 25  1  0
 12 26  1  0
 12 27  1  0
M  END
$$$$

     RDKit          3D

 27 27  0  0  0  0  0  0  0  0999 V2000
   -3.4172    0.7922   -0.1860 C   0  0  0  0  0  0  0  0  0  0  0  0
   -3.0094   -0.6414    0.1383 C   0  0  2  0  0  0  0  0  0  0  0  0
   -3.9054   -1.1234    1.1536 N   0  0  0  0  0  0  0  0  0  0  0  0
   -1.6011   -0.5775    0.6114 C   0  0  0  0  0  0  0  0  0  0  0  0
   -1.3472   -0.9309    1.7852 O   0  0  0  0  0  0  0  0  0  0  0  0
   -0.5352   -0.1352   -0.2054 N   0  0  0  0  0  0  0  0  0  0  0  0
    0.8411   -0.0579    0.2127 C   0  0  2  0  0  0  0  0  0  0  0  0
    1.4090    1.3411    0.0618 C   0  0  0  0  0  0  0  0  0  0  0  0
    2.8679    1.0742    0.0106 C   0  0  0  0  0  0  0  0  0  0  0  0
    3.7812    1.8754    0.3294 O   0  0  0  0  0  0  0  0  0  0  0  0
    3.0437   -0.2537   -0.4650 N   0  0  0  0  0  0  0  0  0  0  0  0
    4.3211   -0.9259   -0.7161 C   0  0  0  0  0  0  0  0  0  0  0  0
    1.7444   -0.8470   -0.6654 C   0  0  0  0  0  0  0  0  0  0  0  0
    1.5104   -1.8074   -1.4242 O   0  0  0  0  0  0  0  0  0  0  0  0
   -4.3781    0.7932   -0.7290 H   0  0  0  0  0  0  0  0  0  0  0  0
   -3.4904    1.3144    0.8059 H   0  0  0  0  0  0  0  0  0  0  0  0
   -2.5900    1.2491   -0.7593 H   0  0  0  0  0  0  0  0  0  0  0  0
   -3.1124   -1.2819   -0.7607 H   0  0  0  0  0  0  0  0  0  0  0  0
   -3.6599   -0.6667    2.0813 H   0  0  0  0  0  0  0  0  0  0  0  0
   -4.8658   -0.7356    0.9056 H   0  0  0  0  0  0  0  0  0  0  0  0
   -0.7721    0.1541   -1.1800 H   0  0  0  0  0  0  0  0  0  0  0  0
    1.0181   -0.3733    1.2369 H   0  0  0  0  0  0  0  0  0  0  0  0
    1.0680    1.7802   -0.8935 H   0  0  0  0  0  0  0  0  0  0  0  0
    1.1342    1.9685    0.9367 H   0  0  0  0  0  0  0  0  0  0  0  0
    4.1404   -1.7677   -1.4010 H   0  0  0  0  0  0  0  0  0  0  0  0
    4.7603   -1.2982    0.2349 H   0  0  0  0  0  0  0  0  0  0  0  0
    5.0443   -0.1818   -1.1186 H   0  0  0  0  0  0  0  0  0  0  0  0
  1  2  1  0
  2  3  1  0
  2  4  1  0
  4  5  2  0
  4  6  1  0
  6  7  1  0
  7  8  1  0
  8  9  1  0
  9 10  2  0
  9 11  1  0
 11 12  1  0
 11 13  1  0
 13 14  2  0
 13  7  1  0
  1 15  1  0
  1 16  1  0
  1 17  1  0
  2 18  1  6
  3 19  1  0
  3 20  1  0
  6 21  1  0
  7 22  1  1
  8 23  1  0
  8 24  1  0
 12 25  1  0
 12 26  1  0
 12 27  1  0
M  END
$$$$

     RDKit          3D

 27 27  0  0  0  0  0  0  0  0999 V2000
    3.2381   -0.6689   -0.8508 C   0  0  0  0  0  0  0  0  0  0  0  0
    2.8190    0.6732   -0.2756 C   0  0  2  0  0  0  0  0  0  0  0  0
    3.8972    1.1714    0.5541 N   0  0  0  0  0  0  0  0  0  0  0  0
    1.5736    0.5563    0.4942 C   0  0  0  0  0  0  0  0  0  0  0  0
    1.5772    0.8797    1.7091 O   0  0  0  0  0  0  0  0  0  0  0  0
    0.3918    0.0838   -0.1374 N   0  0  0  0  0  0  0  0  0  0  0  0
   -0.8234   -0.0259    0.6299 C   0  0  2  0  0  0  0  0  0  0  0  0
   -1.3757   -1.4182    0.5853 C   0  0  0  0  0  0  0  0  0  0  0  0
   -2.2654   -1.3816   -0.6017 C   0  0  0  0  0  0  0  0  0  0  0  0
   -2.5139   -2.3062   -1.4425 O   0  0  0  0  0  0  0  0  0  0  0  0
   -2.8234   -0.0753   -0.6470 N   0  0  0  0  0  0  0  0  0  0  0  0
   -4.1205    0.3155   -1.2174 C   0  0  0  0  0  0  0  0  0  0  0  0
   -1.8777    0.7895   -0.0298 C   0  0  0  0  0  0  0  0  0  0  0  0
   -1.9277    2.0660   -0.0415 O   0  0  0  0  0  0  0  0  0  0  0  0
    2.3494   -1.2663   -1.0695 H   0  0  0  0  0  0  0  0  0  0  0  0
    3.8253   -0.5482   -1.7647 H   0  0  0  0  0  0  0  0  0  0  0  0
    3.7956   -1.1917   -0.0354 H   0  0  0  0  0  0  0  0  0  0  0  0
    2.7041    1.3544   -1.1642 H   0  0  0  0  0  0  0  0  0  0  0  0
    3.5573    1.2469    1.5359 H   0  0  0  0  0  0  0  0  0  0  0  0
    4.2177    2.0983    0.2042 H   0  0  0  0  0  0  0  0  0  0  0  0
    0.4291   -0.1718   -1.1365 H   0  0  0  0  0  0  0  0  0  0  0  0
   -0.6589    0.2934    1.6721 H   0  0  0  0  0  0  0  0  0  0  0  0
   -0.5954   -2.1960    0.5056 H   0  0  0  0  0  0  0  0  0  0  0  0
   -2.0243   -1.5542    1.4819 H   0  0  0  0  0  0  0  0  0  0  0  0
   -4.8503   -0.5185   -1.1855 H   0  0  0  0  0  0  0  0  0  0  0  0
   -4.0009    0.6751   -2.2645 H   0  0  0  0  0  0  0  0  0  0  0  0
   -4.5181    1.1194   -0.5546 H   0  0  0  0  0  0  0  0  0  0  0  0
  1  2  1  0
  2  3  1  0
  2  4  1  0
  4  5  2  0
  4  6  1  0
  6  7  1  0
  7  8  1  0
  8  9  1  0
  9 10  2  0
  9 11  1  0
 11 12  1  0
 11 13  1  0
 13 14  2  0
 13  7  1  0
  1 15  1  0
  1 16  1  0
  1 17  1  0
  2 18  1  6
  3 19  1  0
  3 20  1  0
  6 21  1  0
  7 22  1  1
  8 23  1  0
  8 24  1  0
 12 25  1  0
 12 26  1  0
 12 27  1  0
M  END
$$$$

     RDKit          3D

 27 27  0  0  0  0  0  0  0  0999 V2000
   -3.2724   -0.8205    1.2571 C   0  0  0  0  0  0  0  0  0  0  0  0
   -2.9952    0.1642    0.1417 C   0  0  2  0  0  0  0  0  0  0  0  0
   -4.0618    0.0205   -0.8311 N   0  0  0  0  0  0  0  0  0  0  0  0
   -1.7172   -0.0801   -0.5305 C   0  0  0  0  0  0  0  0  0  0  0  0
   -1.6665   -0.3662   -1.7765 O   0  0  0  0  0  0  0  0  0  0  0  0
   -0.4476   -0.0259    0.1117 N   0  0  0  0  0  0  0  0  0  0  0  0
    0.8062   -0.2718   -0.5751 C   0  0  2  0  0  0  0  0  0  0  0  0
    1.6406   -1.3103    0.1122 C   0  0  0  0  0  0  0  0  0  0  0  0
    3.0308   -0.7979   -0.0084 C   0  0  0  0  0  0  0  0  0  0  0  0
    4.1193   -1.4394   -0.0334 O   0  0  0  0  0  0  0  0  0  0  0  0
    2.9266    0.6196   -0.0962 N   0  0  0  0  0  0  0  0  0  0  0  0
    4.0185    1.5548    0.1545 C   0  0  0  0  0  0  0  0  0  0  0  0
    1.6020    0.9870   -0.4641 C   0  0  0  0  0  0  0  0  0  0  0  0
    1.2357    2.1770   -0.6466 O   0  0  0  0  0  0  0  0  0  0  0  0
   -4.0633   -0.3726    1.8940 H   0  0  0  0  0  0  0  0  0  0  0  0
   -3.6854   -1.7812    0.8722 H   0  0  0  0  0  0  0  0  0  0  0  0
   -2.3839   -0.9805    1.9054 H   0  0  0  0  0  0  0  0  0  0  0  0
   -3.0928    1.1784    0.5741 H   0  0  0  0  0  0  0  0  0  0  0  0
   -4.0722    0.8736   -1.4626 H   0  0  0  0  0  0  0  0  0  0  0  0
   -3.8650   -0.7951   -1.4407 H   0  0  0  0  0  0  0  0  0  0  0  0
   -0.4073    0.2012    1.1263 H   0  0  0  0  0  0  0  0  0  0  0  0
    0.6237   -0.5031   -1.6536 H   0  0  0  0  0  0  0  0  0  0  0  0
    1.6020   -2.2617   -0.4857 H   0  0  0  0  0  0  0  0  0  0  0  0
    1.3356   -1.4840    1.1604 H   0  0  0  0  0  0  0  0  0  0  0  0
    4.7134    1.1885    0.9230 H   0  0  0  0  0  0  0  0  0  0  0  0
    4.5141    1.8231   -0.7938 H   0  0  0  0  0  0  0  0  0  0  0  0
    3.5622    2.5024    0.5656 H   0  0  0  0  0  0  0  0  0  0  0  0
  1  2  1  0
  2  3  1  0
  2  4  1  0
  4  5  2  0
  4  6  1  0
  6  7  1  0
  7  8  1  0
  8  9  1  0
  9 10  2  0
  9 11  1  0
 11 12  1  0
 11 13  1  0
 13 14  2  0
 13  7  1  0
  1 15  1  0
  1 16  1  0
  1 17  1  0
  2 18  1  1
  3 19  1  0
  3 20  1  0
  6 21  1  0
  7 22  1  6
  8 23  1  0
  8 24  1  0
 12 25  1  0
 12 26  1  0
 12 27  1  0
M  END
$$$$

     RDKit          3D

 27 27  0  0  0  0  0  0  0  0999 V2000
    2.9695    1.2583   -0.4304 C   0  0  0  0  0  0  0  0  0  0  0  0
    2.7145    0.1008    0.5245 C   0  0  2  0  0  0  0  0  0  0  0  0
    3.9044   -0.7259    0.5619 N   0  0  0  0  0  0  0  0  0  0  0  0
    1.5784   -0.7370    0.0635 C   0  0  0  0  0  0  0  0  0  0  0  0
    1.7351   -1.9557   -0.2217 O   0  0  0  0  0  0  0  0  0  0  0  0
    0.2599   -0.2200   -0.0822 N   0  0  0  0  0  0  0  0  0  0  0  0
   -0.8613   -1.0247   -0.5313 C   0  0  2  0  0  0  0  0  0  0  0  0
   -1.5886   -0.3891   -1.6807 C   0  0  0  0  0  0  0  0  0  0  0  0
   -2.6192    0.4882   -1.0317 C   0  0  0  0  0  0  0  0  0  0  0  0
   -3.2778    1.3631   -1.6256 O   0  0  0  0  0  0  0  0  0  0  0  0
   -2.6935    0.1334    0.3560 N   0  0  0  0  0  0  0  0  0  0  0  0
   -3.5098    0.8662    1.3153 C   0  0  0  0  0  0  0  0  0  0  0  0
   -1.8716   -0.9878    0.5734 C   0  0  0  0  0  0  0  0  0  0  0  0
   -1.9765   -1.7949    1.5175 O   0  0  0  0  0  0  0  0  0  0  0  0
    4.0326    1.2959   -0.7457 H   0  0  0  0  0  0  0  0  0  0  0  0
    2.3199    1.1422   -1.3412 H   0  0  0  0  0  0  0  0  0  0  0  0
    2.7451    2.2389    0.0402 H   0  0  0  0  0  0  0  0  0  0  0  0
    2.5695    0.5303    1.5206 H   0  0  0  0  0  0  0  0  0  0  0  0
    4.2531   -0.8802    1.5310 H   0  0  0  0  0  0  0  0  0  0  0  0
    3.7390   -1.6499    0.1186 H   0  0  0  0  0  0  0  0  0  0  0  0
    0.1467    0.8020    0.1609 H   0  0  0  0  0  0  0  0  0  0  0  0
   -0.5067   -2.0407   -0.7214 H   0  0  0  0  0  0  0  0  0  0  0  0
   -2.1324   -1.1878   -2.2176 H   0  0  0  0  0  0  0  0  0  0  0  0
   -0.9400    0.1994   -2.3411 H   0  0  0  0  0  0  0  0  0  0  0  0
   -3.3914    0.3580    2.2922 H   0  0  0  0  0  0  0  0  0  0  0  0
   -3.0604    1.8780    1.4339 H   0  0  0  0  0  0  0  0  0  0  0  0
   -4.5386    0.9388    0.9610 H   0  0  0  0  0  0  0  0  0  0  0  0
  1  2  1  0
  2  3  1  0
  2  4  1  0
  4  5  2  0
  4  6  1  0
  6  7  1  0
  7  8  1  0
  8  9  1  0
  9 10  2  0
  9 11  1  0
 11 12  1  0
 11 13  1  0
 13 14  2  0
 13  7  1  0
  1 15  1  0
  1 16  1  0
  1 17  1  0
  2 18  1  1
  3 19  1  0
  3 20  1  0
  6 21  1  0
  7 22  1  6
  8 23  1  0
  8 24  1  0
 12 25  1  0
 12 26  1  0
 12 27  1  0
M  END
$$$$

     RDKit          3D

 27 27  0  0  0  0  0  0  0  0999 V2000
    3.5047   -0.0912    1.2272 C   0  0  0  0  0  0  0  0  0  0  0  0
    2.7426    0.3285   -0.0072 C   0  0  2  0  0  0  0  0  0  0  0  0
    2.1491    1.6302    0.1259 N   0  0  0  0  0  0  0  0  0  0  0  0
    1.6876   -0.6828   -0.2561 C   0  0  0  0  0  0  0  0  0  0  0  0
    1.9669   -1.8903   -0.4055 O   0  0  0  0  0  0  0  0  0  0  0  0
    0.3326   -0.2937   -0.3294 N   0  0  0  0  0  0  0  0  0  0  0  0
   -0.7572   -1.2295   -0.5706 C   0  0  2  0  0  0  0  0  0  0  0  0
   -1.4889   -0.7299   -1.7989 C   0  0  0  0  0  0  0  0  0  0  0  0
   -2.2015    0.4478   -1.2340 C   0  0  0  0  0  0  0  0  0  0  0  0
   -2.4636    1.5651   -1.7477 O   0  0  0  0  0  0  0  0  0  0  0  0
   -2.5609    0.0528    0.0940 N   0  0  0  0  0  0  0  0  0  0  0  0
   -3.5511    0.7567    0.9095 C   0  0  0  0  0  0  0  0  0  0  0  0
   -1.8136   -1.1003    0.4650 C   0  0  0  0  0  0  0  0  0  0  0  0
   -2.0387   -1.8240    1.4666 O   0  0  0  0  0  0  0  0  0  0  0  0
    3.9747   -1.0815    0.9781 H   0  0  0  0  0  0  0  0  0  0  0  0
    4.2934    0.6643    1.4804 H   0  0  0  0  0  0  0  0  0  0  0  0
    2.8349   -0.2667    2.0710 H   0  0  0  0  0  0  0  0  0  0  0  0
    3.4720    0.3649   -0.8572 H   0  0  0  0  0  0  0  0  0  0  0  0
    2.5740    2.3159   -0.5303 H   0  0  0  0  0  0  0  0  0  0  0  0
    2.1986    1.9498    1.1124 H   0  0  0  0  0  0  0  0  0  0  0  0
    0.0951    0.7135   -0.2051 H   0  0  0  0  0  0  0  0  0  0  0  0
   -0.3901   -2.2567   -0.6853 H   0  0  0  0  0  0  0  0  0  0  0  0
   -2.2573   -1.4868   -2.0823 H   0  0  0  0  0  0  0  0  0  0  0  0
   -0.8216   -0.4687   -2.6268 H   0  0  0  0  0  0  0  0  0  0  0  0
   -3.0972    1.5241    1.5456 H   0  0  0  0  0  0  0  0  0  0  0  0
   -3.9931   -0.0396    1.5713 H   0  0  0  0  0  0  0  0  0  0  0  0
   -4.3915    1.1281    0.2894 H   0  0  0  0  0  0  0  0  0  0  0  0
  1  2  1  0
  2  3  1  0
  2  4  1  0
  4  5  2  0
  4  6  1  0
  6  7  1  0
  7  8  1  0
  8  9  1  0
  9 10  2  0
  9 11  1  0
 11 12  1  0
 11 13  1  0
 13 14  2  0
 13  7  1  0
  1 15  1  0
  1 16  1  0
  1 17  1  0
  2 18  1  6
  3 19  1  0
  3 20  1  0
  6 21  1  0
  7 22  1  6
  8 23  1  0
  8 24  1  0
 12 25  1  0
 12 26  1  0
 12 27  1  0
M  END
$$$$
