
     RDKit          3D

 19 19  0  0  0  0  0  0  0  0999 V2000
    1.8505    0.5656   -0.4977 C   0  0  0  0  0  0  0  0  0  0  0  0
    0.9848   -0.2256    0.4698 C   0  0  1  0  0  0  0  0  0  0  0  0
    0.8454    0.5819    1.6154 O   0  0  0  0  0  0  0  0  0  0  0  0
   -0.3363   -0.4057   -0.1926 C   0  0  0  0  0  0  0  0  0  0  0  0
   -0.2699   -1.1890   -1.3246 O   0  0  0  0  0  0  0  0  0  0  0  0
   -1.0966    0.8928   -0.3305 C   0  0  0  0  0  0  0  0  0  0  0  0
   -2.3172    0.0803   -0.1831 N   0  0  0  0  0  0  0  0  0  0  0  0
   -1.4975   -0.7816    0.6890 C   0  0  0  0  0  0  0  0  0  0  0  0
    1.1797    1.3138   -0.9691 H   0  0  0  0  0  0  0  0  0  0  0  0
    2.2237   -0.1541   -1.2578 H   0  0  0  0  0  0  0  0  0  0  0  0
    2.6978    1.0650    0.0127 H   0  0  0  0  0  0  0  0  0  0  0  0
    1.4597   -1.1876    0.7437 H   0  0  0  0  0  0  0  0  0  0  0  0
    1.7173    1.0138    1.8470 H   0  0  0  0  0  0  0  0  0  0  0  0
    0.3551   -1.9290   -1.1355 H   0  0  0  0  0  0  0  0  0  0  0  0
   -1.0044    1.4242   -1.2712 H   0  0  0  0  0  0  0  0  0  0  0  0
   -0.9778    1.4896    0.6032 H   0  0  0  0  0  0  0  0  0  0  0  0
   -2.4615   -0.4058   -1.1160 H   0  0  0  0  0  0  0  0  0  0  0  0
   -1.5045   -0.3319    1.6986 H   0  0  0  0  0  0  0  0  0  0  0  0
   -1.8484   -1.8167    0.5988 H   0  0  0  0  0  0  0  0  0  0  0  0
  1  2  1  0
  2  3  1  0
  2  4  1  0
  4  5  1  0
  4  6  1  0
  6  7  1  0
  7  8  1  0
  8  4  1  0
  1  9  1  0
  1 10  1  0
  1 11  1  0
  2 12  1  1
  3 13  1  0
  5 14  1  0
  6 15  1  0
  6 16  1  0
  7 17  1  0
  8 18  1  0
  8 19  1  0
M  END
$$$$

     RDKit          3D

 19 19  0  0  0  0  0  0  0  0999 V2000
    1.6755    0.4584   -0.8182 C   0  0  0  0  0  0  0  0  0  0  0  0
    1.0470   -0.5344    0.1264 C   0  0  1  0  0  0  0  0  0  0  0  0
    1.6532   -0.2710    1.3810 O   0  0  0  0  0  0  0  0  0  0  0  0
   -0.4065   -0.2884    0.3061 C   0  0  0  0  0  0  0  0  0  0  0  0
   -1.0274   -1.0790    1.2791 O   0  0  0  0  0  0  0  0  0  0  0  0
   -0.8076    1.1699    0.3853 C   0  0  0  0  0  0  0  0  0  0  0  0
   -2.0960    0.7304   -0.1831 N   0  0  0  0  0  0  0  0  0  0  0  0
   -1.2841   -0.2581   -0.9193 C   0  0  0  0  0  0  0  0  0  0  0  0
    2.7272    0.1209   -0.9687 H   0  0  0  0  0  0  0  0  0  0  0  0
    1.6903    1.4726   -0.3602 H   0  0  0  0  0  0  0  0  0  0  0  0
    1.1715    0.4651   -1.7940 H   0  0  0  0  0  0  0  0  0  0  0  0
    1.3100   -1.5586   -0.1347 H   0  0  0  0  0  0  0  0  0  0  0  0
    1.6488   -1.0918    1.9390 H   0  0  0  0  0  0  0  0  0  0  0  0
   -0.7615   -2.0171    1.0671 H   0  0  0  0  0  0  0  0  0  0  0  0
   -0.3140    1.7853   -0.3720 H   0  0  0  0  0  0  0  0  0  0  0  0
   -0.8929    1.5880    1.4004 H   0  0  0  0  0  0  0  0  0  0  0  0
   -2.6232    0.2359    0.5872 H   0  0  0  0  0  0  0  0  0  0  0  0
   -1.8755   -1.1594   -1.1175 H   0  0  0  0  0  0  0  0  0  0  0  0
   -0.8347    0.2313   -1.8041 H   0  0  0  0  0  0  0  0  0  0  0  0
  1  2  1  0
  2  3  1  0
  2  4  1  0
  4  5  1  0
  4  6  1  0
  6  7  1  0
  7  8  1  0
  8  4  1  0
  1  9  1  0
  1 10  1  0
  1 11  1  0
  2 12  1  6
  3 13  1  0
  5 14  1  0
  6 15  1  0
  6 16  1  0
  7 17  1  0
  8 18  1  0
  8 19  1  0
M  END
$$$$

     RDKit          3D

 19 19  0  0  0  0  0  0  0  0999 V2000
    1.5570   -0.8886    0.3111 C   0  0  0  0  0  0  0  0  0  0  0  0
    1.0757    0.5248    0.2251 C   0  0  1  0  0  0  0  0  0  0  0  0
    1.7440    1.1256   -0.8581 O   0  0  0  0  0  0  0  0  0  0  0  0
   -0.3948    0.6498   -0.0518 C   0  0  0  0  0  0  0  0  0  0  0  0
   -0.7847    1.9701   -0.1666 O   0  0  0  0  0  0  0  0  0  0  0  0
   -0.9725   -0.3142   -1.0312 C   0  0  0  0  0  0  0  0  0  0  0  0
   -1.2046   -1.2407    0.0579 N   0  0  0  0  0  0  0  0  0  0  0  0
   -1.2860   -0.0779    0.9442 C   0  0  0  0  0  0  0  0  0  0  0  0
    1.5410   -1.3947   -0.6895 H   0  0  0  0  0  0  0  0  0  0  0  0
    2.6262   -0.8593    0.6087 H   0  0  0  0  0  0  0  0  0  0  0  0
    1.0375   -1.4867    1.0802 H   0  0  0  0  0  0  0  0  0  0  0  0
    1.3617    1.0771    1.1209 H   0  0  0  0  0  0  0  0  0  0  0  0
    1.2980    0.7517   -1.6700 H   0  0  0  0  0  0  0  0  0  0  0  0
   -0.2552    2.5005    0.4659 H   0  0  0  0  0  0  0  0  0  0  0  0
   -0.2887   -0.7331   -1.7874 H   0  0  0  0  0  0  0  0  0  0  0  0
   -1.8736    0.0893   -1.5157 H   0  0  0  0  0  0  0  0  0  0  0  0
   -2.0545   -1.8131    0.0093 H   0  0  0  0  0  0  0  0  0  0  0  0
   -2.2906    0.3705    1.0152 H   0  0  0  0  0  0  0  0  0  0  0  0
   -0.8360   -0.2510    1.9318 H   0  0  0  0  0  0  0  0  0  0  0  0
  1  2  1  0
  2  3  1  0
  2  4  1  0
  4  5  1  0
  4  6  1  0
  6  7  1  0
  7  8  1  0
  8  4  1  0
  1  9  1  0
  1 10  1  0
  1 11  1  0
  2 12  1  1
  3 13  1  0
  5 14  1  0
  6 15  1  0
  6 16  1  0
  7 17  1  0
  8 18  1  0
  8 19  1  0
M  END
$$$$

     RDKit          3D

 19 19  0  0  0  0  0  0  0  0999 V2000
    2.0097    0.3312    0.0953 C   0  0  0  0  0  0  0  0  0  0  0  0
    0.8416   -0.5788   -0.0805 C   0  0  1  0  0  0  0  0  0  0  0  0
    0.4885   -1.1494    1.1433 O   0  0  0  0  0  0  0  0  0  0  0  0
   -0.3863    0.1022   -0.6242 C   0  0  0  0  0  0  0  0  0  0  0  0
   -0.2381    0.7354   -1.8468 O   0  0  0  0  0  0  0  0  0  0  0  0
   -1.5693   -0.8257   -0.5331 C   0  0  0  0  0  0  0  0  0  0  0  0
   -2.0235   -0.1530    0.6751 N   0  0  0  0  0  0  0  0  0  0  0  0
   -1.1441    0.9465    0.3700 C   0  0  0  0  0  0  0  0  0  0  0  0
    2.0861    1.1454   -0.6234 H   0  0  0  0  0  0  0  0  0  0  0  0
    2.0766    0.7012    1.1586 H   0  0  0  0  0  0  0  0  0  0  0  0
    2.9410   -0.2902   -0.0301 H   0  0  0  0  0  0  0  0  0  0  0  0
    1.1132   -1.3869   -0.7925 H   0  0  0  0  0  0  0  0  0  0  0  0
    1.0130   -0.8091    1.8950 H   0  0  0  0  0  0  0  0  0  0  0  0
    0.4387    1.4320   -1.7920 H   0  0  0  0  0  0  0  0  0  0  0  0
   -2.2802   -0.8113   -1.3560 H   0  0  0  0  0  0  0  0  0  0  0  0
   -1.3138   -1.8828   -0.2627 H   0  0  0  0  0  0  0  0  0  0  0  0
   -1.7489   -0.6128    1.5652 H   0  0  0  0  0  0  0  0  0  0  0  0
   -0.5635    1.3597    1.1964 H   0  0  0  0  0  0  0  0  0  0  0  0
   -1.7407    1.7464   -0.1576 H   0  0  0  0  0  0  0  0  0  0  0  0
  1  2  1  0
  2  3  1  0
  2  4  1  0
  4  5  1  0
  4  6  1  0
  6  7  1  0
  7  8  1  0
  8  4  1  0
  1  9  1  0
  1 10  1  0
  1 11  1  0
  2 12  1  6
  3 13  1  0
  5 14  1  0
  6 15  1  0
  6 16  1  0
  7 17  1  0
  8 18  1  0
  8 19  1  0
M  END
$$$$

     RDKit          3D

 19 19  0  0  0  0  0  0  0  0999 V2000
   -1.9861    0.6708    0.2937 C   0  0  0  0  0  0  0  0  0  0  0  0
   -1.0771   -0.4416   -0.1865 C   0  0  1  0  0  0  0  0  0  0  0  0
   -1.0188   -0.5166   -1.5657 O   0  0  0  0  0  0  0  0  0  0  0  0
    0.2866   -0.1875    0.4260 C   0  0  0  0  0  0  0  0  0  0  0  0
    0.1757   -0.1211    1.8007 O   0  0  0  0  0  0  0  0  0  0  0  0
    1.4105   -1.0002   -0.1171 C   0  0  0  0  0  0  0  0  0  0  0  0
    2.2483    0.2092   -0.0840 N   0  0  0  0  0  0  0  0  0  0  0  0
    1.0271    0.9730   -0.2101 C   0  0  0  0  0  0  0  0  0  0  0  0
   -1.8806    0.7491    1.3781 H   0  0  0  0  0  0  0  0  0  0  0  0
   -3.0436    0.4458    0.0420 H   0  0  0  0  0  0  0  0  0  0  0  0
   -1.6956    1.6541   -0.1350 H   0  0  0  0  0  0  0  0  0  0  0  0
   -1.4506   -1.3884    0.2313 H   0  0  0  0  0  0  0  0  0  0  0  0
   -1.7589   -1.1402   -1.8474 H   0  0  0  0  0  0  0  0  0  0  0  0
    1.0288   -0.0445    2.2677 H   0  0  0  0  0  0  0  0  0  0  0  0
    1.8509   -1.7481    0.6015 H   0  0  0  0  0  0  0  0  0  0  0  0
    1.2646   -1.3919   -1.1267 H   0  0  0  0  0  0  0  0  0  0  0  0
    2.8889    0.2720   -0.8901 H   0  0  0  0  0  0  0  0  0  0  0  0
    0.7590    1.1059   -1.2629 H   0  0  0  0  0  0  0  0  0  0  0  0
    0.9710    1.9003    0.3845 H   0  0  0  0  0  0  0  0  0  0  0  0
  1  2  1  0
  2  3  1  0
  2  4  1  0
  4  5  1  0
  4  6  1  0
  6  7  1  0
  7  8  1  0
  8  4  1  0
  1  9  1  0
  1 10  1  0
  1 11  1  0
  2 12  1  1
  3 13  1  0
  5 14  1  0
  6 15  1  0
  6 16  1  0
  7 17  1  0
  8 18  1  0
  8 19  1  0
M  END
$$$$

     RDKit          3D

 19 19  0  0  0  0  0  0  0  0999 V2000
   -1.8004    0.4318    0.6990 C   0  0  0  0  0  0  0  0  0  0  0  0
   -1.0959   -0.2819   -0.3919 C   0  0  1  0  0  0  0  0  0  0  0  0
   -1.4796    0.1920   -1.6498 O   0  0  0  0  0  0  0  0  0  0  0  0
    0.3889   -0.2817   -0.2942 C   0  0  0  0  0  0  0  0  0  0  0  0
    1.0241   -1.0700   -1.2293 O   0  0  0  0  0  0  0  0  0  0  0  0
    1.0416    1.0843   -0.2363 C   0  0  0  0  0  0  0  0  0  0  0  0
    2.0913    0.4280    0.5636 N   0  0  0  0  0  0  0  0  0  0  0  0
    0.9980   -0.4309    1.0573 C   0  0  0  0  0  0  0  0  0  0  0  0
   -1.2604    1.2544    1.1683 H   0  0  0  0  0  0  0  0  0  0  0  0
   -2.1933   -0.3010    1.4527 H   0  0  0  0  0  0  0  0  0  0  0  0
   -2.7339    0.8881    0.2560 H   0  0  0  0  0  0  0  0  0  0  0  0
   -1.4193   -1.3626   -0.3782 H   0  0  0  0  0  0  0  0  0  0  0  0
   -1.0645   -0.3716   -2.3602 H   0  0  0  0  0  0  0  0  0  0  0  0
    0.9796   -2.0130   -0.9376 H   0  0  0  0  0  0  0  0  0  0  0  0
    1.4005    1.4627   -1.2143 H   0  0  0  0  0  0  0  0  0  0  0  0
    0.5402    1.8225    0.3984 H   0  0  0  0  0  0  0  0  0  0  0  0
    2.6523   -0.1643   -0.1197 H   0  0  0  0  0  0  0  0  0  0  0  0
    0.5067    0.1139    1.8877 H   0  0  0  0  0  0  0  0  0  0  0  0
    1.4242   -1.4006    1.3285 H   0  0  0  0  0  0  0  0  0  0  0  0
  1  2  1  0
  2  3  1  0
  2  4  1  0
  4  5  1  0
  4  6  1  0
  6  7  1  0
  7  8  1  0
  8  4  1  0
  1  9  1  0
  1 10  1  0
  1 11  1  0
  2 12  1  6
  3 13  1  0
  5 14  1  0
  6 15  1  0
  6 16  1  0
  7 17  1  0
  8 18  1  0
  8 19  1  0
M  END
$$$$

     RDKit          3D

 19 19  0  0  0  0  0  0  0  0999 V2000
   -1.7682    0.0787   -0.6760 C   0  0  0  0  0  0  0  0  0  0  0  0
   -1.0658    0.1792    0.6277 C   0  0  1  0  0  0  0  0  0  0  0  0
   -1.4147   -0.9523    1.3906 O   0  0  0  0  0  0  0  0  0  0  0  0
    0.4219    0.2203    0.5499 C   0  0  0  0  0  0  0  0  0  0  0  0
    0.9718    0.3153    1.8321 O   0  0  0  0  0  0  0  0  0  0  0  0
    1.0485    1.1839   -0.3850 C   0  0  0  0  0  0  0  0  0  0  0  0
    1.9746    0.1238   -0.7991 N   0  0  0  0  0  0  0  0  0  0  0  0
    1.0903   -0.8758   -0.2151 C   0  0  0  0  0  0  0  0  0  0  0  0
   -1.4030    0.7789   -1.4514 H   0  0  0  0  0  0  0  0  0  0  0  0
   -1.8037   -0.9527   -1.0526 H   0  0  0  0  0  0  0  0  0  0  0  0
   -2.8452    0.3706   -0.4995 H   0  0  0  0  0  0  0  0  0  0  0  0
   -1.3991    1.0564    1.2269 H   0  0  0  0  0  0  0  0  0  0  0  0
   -1.5692   -1.7233    0.7806 H   0  0  0  0  0  0  0  0  0  0  0  0
    1.4325   -0.5006    2.1129 H   0  0  0  0  0  0  0  0  0  0  0  0
    1.6621    2.0008    0.0708 H   0  0  0  0  0  0  0  0  0  0  0  0
    0.4462    1.6020   -1.1957 H   0  0  0  0  0  0  0  0  0  0  0  0
    2.1131    0.0442   -1.8129 H   0  0  0  0  0  0  0  0  0  0  0  0
    0.4141   -1.3708   -0.9209 H   0  0  0  0  0  0  0  0  0  0  0  0
    1.6939   -1.5784    0.4166 H   0  0  0  0  0  0  0  0  0  0  0  0
  1  2  1  0
  2  3  1  0
  2  4  1  0
  4  5  1  0
  4  6  1  0
  6  7  1  0
  7  8  1  0
  8  4  1  0
  1  9  1  0
  1 10  1  0
  1 11  1  0
  2 12  1  1
  3 13  1  0
  5 14  1  0
  6 15  1  0
  6 16  1  0
  7 17  1  0
  8 18  1  0
  8 19  1  0
M  END
$$$$

     RDKit          3D

 19 19  0  0  0  0  0  0  0  0999 V2000
    2.1317    0.4320    0.4462 C   0  0  0  0  0  0  0  0  0  0  0  0
    1.0407   -0.3131   -0.3080 C   0  0  1  0  0  0  0  0  0  0  0  0
    1.2661   -1.6729   -0.0771 O   0  0  0  0  0  0  0  0  0  0  0  0
   -0.3140    0.0165    0.2659 C   0  0  0  0  0  0  0  0  0  0  0  0
   -0.4480   -0.2103    1.6148 O   0  0  0  0  0  0  0  0  0  0  0  0
   -0.9405    1.2916   -0.2198 C   0  0  0  0  0  0  0  0  0  0  0  0
   -2.1799    0.5816   -0.5384 N   0  0  0  0  0  0  0  0  0  0  0  0
   -1.3935   -0.6344   -0.5859 C   0  0  0  0  0  0  0  0  0  0  0  0
    2.1532    1.5031    0.1928 H   0  0  0  0  0  0  0  0  0  0  0  0
    3.1030   -0.0020    0.0869 H   0  0  0  0  0  0  0  0  0  0  0  0
    2.0101    0.2682    1.5293 H   0  0  0  0  0  0  0  0  0  0  0  0
    1.0757   -0.0456   -1.3659 H   0  0  0  0  0  0  0  0  0  0  0  0
    0.7398   -2.1975   -0.7478 H   0  0  0  0  0  0  0  0  0  0  0  0
   -0.8494   -1.0875    1.8024 H   0  0  0  0  0  0  0  0  0  0  0  0
   -1.0579    2.0892    0.5417 H   0  0  0  0  0  0  0  0  0  0  0  0
   -0.5132    1.6810   -1.1600 H   0  0  0  0  0  0  0  0  0  0  0  0
   -2.8961    0.6298    0.2017 H   0  0  0  0  0  0  0  0  0  0  0  0
   -1.0651   -0.8276   -1.6181 H   0  0  0  0  0  0  0  0  0  0  0  0
   -1.8627   -1.5021   -0.0608 H   0  0  0  0  0  0  0  0  0  0  0  0
  1  2  1  0
  2  3  1  0
  2  4  1  0
  4  5  1  0
  4  6  1  0
  6  7  1  0
  7  8  1  0
  8  4  1  0
  1  9  1  0
  1 10  1  0
  1 11  1  0
  2 12  1  6
  3 13  1  0
  5 14  1  0
  6 15  1  0
  6 16  1  0
  7 17  1  0
  8 18  1  0
  8 19  1  0
M  END
$$$$
