
     RDKit          3D

 26 26  0  0  0  0  0  0  0  0999 V2000
    3.8795   -0.5764    1.5311 N   0  0  0  0  0  0  0  0  0  0  0  0
    2.9949    0.1195    0.8069 O   0  0  0  0  0  0  0  0  0  0  0  0
    3.0106   -0.3112   -0.4866 C   0  0  0  0  0  0  0  0  0  0  0  0
    2.0500    0.4160   -1.3623 C   0  0  0  0  0  0  0  0  0  0  0  0
    0.7118    0.2679   -0.9257 N   0  0  0  0  0  0  0  0  0  0  0  0
    0.1358    0.7043    0.2942 C   0  0  0  0  0  0  0  0  0  0  0  0
    0.8463    1.3066    1.1169 O   0  0  0  0  0  0  0  0  0  0  0  0
   -1.2892    0.4275    0.5440 C   0  0  2  0  0  0  0  0  0  0  0  0
   -1.7419   -0.9482    0.0670 C   0  0  0  0  0  0  0  0  0  0  0  0
   -2.2398    0.3328   -0.5891 C   0  0  1  0  0  0  0  0  0  0  0  0
   -3.6672    0.5783   -0.3685 C   0  0  0  0  0  0  0  0  0  0  0  0
   -4.2676    0.2870    0.8971 N   0  0  0  0  0  0  0  0  0  0  0  0
   -4.3904    1.0467   -1.2789 O   0  0  0  0  0  0  0  0  0  0  0  0
    3.7522   -1.5864    1.3676 H   0  0  0  0  0  0  0  0  0  0  0  0
    4.8583   -0.3338    1.2398 H   0  0  0  0  0  0  0  0  0  0  0  0
    4.0575   -0.2563   -0.9235 H   0  0  0  0  0  0  0  0  0  0  0  0
    2.7999   -1.4141   -0.4653 H   0  0  0  0  0  0  0  0  0  0  0  0
    2.1367   -0.0077   -2.4081 H   0  0  0  0  0  0  0  0  0  0  0  0
    2.3007    1.5047   -1.4519 H   0  0  0  0  0  0  0  0  0  0  0  0
    0.0565   -0.2453   -1.6198 H   0  0  0  0  0  0  0  0  0  0  0  0
   -1.6754    0.7955    1.5154 H   0  0  0  0  0  0  0  0  0  0  0  0
   -2.3959   -1.4712    0.7848 H   0  0  0  0  0  0  0  0  0  0  0  0
   -1.0835   -1.5547   -0.5486 H   0  0  0  0  0  0  0  0  0  0  0  0
   -1.8489    0.5805   -1.5854 H   0  0  0  0  0  0  0  0  0  0  0  0
   -4.6792   -0.6530    1.0851 H   0  0  0  0  0  0  0  0  0  0  0  0
   -4.3118    0.9909    1.6561 H   0  0  0  0  0  0  0  0  0  0  0  0
  1  2  1  0
  2  3  1  0
  3  4  1  0
  4  5  1  0
  5  6  1  0
  6  7  2  0
  6  8  1  0
  8  9  1  0
  9 10  1  0
 10 11  1  0
 11 12  1  0
 11 13  2  0
 10  8  1  0
  1 14  1  0
  1 15  1  0
  3 16  1  0
  3 17  1  0
  4 18  1  0
  4 19  1  0
  5 20  1  0
  8 21  1  1
  9 22  1  0
  9 23  1  0
 10 24  1  6
 12 25  1  0
 12 26  1  0
M  END
$$$$

     RDKit          3D

 26 26  0  0  0  0  0  0  0  0999 V2000
    3.9135   -0.6730    1.4695 N   0  0  0  0  0  0  0  0  0  0  0  0
    3.1485    0.2807    0.9137 O   0  0  0  0  0  0  0  0  0  0  0  0
    3.0375    0.0619   -0.4792 C   0  0  0  0  0  0  0  0  0  0  0  0
    2.1736    1.1636   -1.0161 C   0  0  0  0  0  0  0  0  0  0  0  0
    0.8698    1.1262   -0.3882 N   0  0  0  0  0  0  0  0  0  0  0  0
   -0.0133    0.0182   -0.4698 C   0  0  0  0  0  0  0  0  0  0  0  0
    0.3543   -0.9827   -1.1218 O   0  0  0  0  0  0  0  0  0  0  0  0
   -1.3434    0.0623    0.2110 C   0  0  2  0  0  0  0  0  0  0  0  0
   -1.8305   -1.2385    0.8452 C   0  0  0  0  0  0  0  0  0  0  0  0
   -2.4752   -0.7035   -0.3621 C   0  0  1  0  0  0  0  0  0  0  0  0
   -3.8372   -0.0835   -0.2340 C   0  0  0  0  0  0  0  0  0  0  0  0
   -4.1509    0.5376    1.0066 N   0  0  0  0  0  0  0  0  0  0  0  0
   -4.6507   -0.1179   -1.1821 O   0  0  0  0  0  0  0  0  0  0  0  0
    4.8839   -0.3394    1.6517 H   0  0  0  0  0  0  0  0  0  0  0  0
    3.8708   -1.5089    0.8601 H   0  0  0  0  0  0  0  0  0  0  0  0
    4.0680    0.1249   -0.8986 H   0  0  0  0  0  0  0  0  0  0  0  0
    2.6224   -0.9310   -0.6372 H   0  0  0  0  0  0  0  0  0  0  0  0
    2.6809    2.1277   -0.7882 H   0  0  0  0  0  0  0  0  0  0  0  0
    2.0707    1.0688   -2.1197 H   0  0  0  0  0  0  0  0  0  0  0  0
    0.5516    1.9580    0.1588 H   0  0  0  0  0  0  0  0  0  0  0  0
   -1.5944    0.9872    0.7695 H   0  0  0  0  0  0  0  0  0  0  0  0
   -2.3795   -1.1667    1.8182 H   0  0  0  0  0  0  0  0  0  0  0  0
   -1.1678   -2.1393    0.7521 H   0  0  0  0  0  0  0  0  0  0  0  0
   -2.2655   -1.1812   -1.3497 H   0  0  0  0  0  0  0  0  0  0  0  0
   -4.3501    1.5508    1.0383 H   0  0  0  0  0  0  0  0  0  0  0  0
   -4.1871   -0.0022    1.8958 H   0  0  0  0  0  0  0  0  0  0  0  0
  1  2  1  0
  2  3  1  0
  3  4  1  0
  4  5  1  0
  5  6  1  0
  6  7  2  0
  6  8  1  0
  8  9  1  0
  9 10  1  0
 10 11  1  0
 11 12  1  0
 11 13  2  0
 10  8  1  0
  1 14  1  0
  1 15  1  0
  3 16  1  0
  3 17  1  0
  4 18  1  0
  4 19  1  0
  5 20  1  0
  8 21  1  1
  9 22  1  0
  9 23  1  0
 10 24  1  6
 12 25  1  0
 12 26  1  0
M  END
$$$$

     RDKit          3D

 26 26  0  0  0  0  0  0  0  0999 V2000
    5.1879    0.2997    0.2094 N   0  0  0  0  0  0  0  0  0  0  0  0
    4.1460    0.8650    0.7444 O   0  0  0  0  0  0  0  0  0  0  0  0
    2.9534    1.0856   -0.0469 C   0  0  0  0  0  0  0  0  0  0  0  0
    2.1779   -0.1124    0.3884 C   0  0  0  0  0  0  0  0  0  0  0  0
    0.8942   -0.4618    0.0686 N   0  0  0  0  0  0  0  0  0  0  0  0
   -0.2994    0.2150    0.5514 C   0  0  0  0  0  0  0  0  0  0  0  0
   -0.1401    1.2190    1.2862 O   0  0  0  0  0  0  0  0  0  0  0  0
   -1.6683   -0.2449    0.2525 C   0  0  2  0  0  0  0  0  0  0  0  0
   -2.0248   -1.0405   -0.9837 C   0  0  0  0  0  0  0  0  0  0  0  0
   -2.5809    0.3420   -0.8031 C   0  0  1  0  0  0  0  0  0  0  0  0
   -3.9690    0.4483   -0.2861 C   0  0  0  0  0  0  0  0  0  0  0  0
   -4.6729   -0.5444    0.3903 N   0  0  0  0  0  0  0  0  0  0  0  0
   -4.5741    1.5734   -0.5015 O   0  0  0  0  0  0  0  0  0  0  0  0
    5.7939    0.5237   -0.5117 H   0  0  0  0  0  0  0  0  0  0  0  0
    5.3384   -0.7090    0.6175 H   0  0  0  0  0  0  0  0  0  0  0  0
    2.6021    2.0487    0.3462 H   0  0  0  0  0  0  0  0  0  0  0  0
    3.1944    1.2181   -1.0926 H   0  0  0  0  0  0  0  0  0  0  0  0
    2.4175   -0.2652    1.5166 H   0  0  0  0  0  0  0  0  0  0  0  0
    2.8234   -0.9858   -0.0225 H   0  0  0  0  0  0  0  0  0  0  0  0
    0.6408   -1.2739   -0.6015 H   0  0  0  0  0  0  0  0  0  0  0  0
   -2.2483   -0.3855    1.2143 H   0  0  0  0  0  0  0  0  0  0  0  0
   -1.2440   -1.1439   -1.7603 H   0  0  0  0  0  0  0  0  0  0  0  0
   -2.6160   -1.9373   -0.8946 H   0  0  0  0  0  0  0  0  0  0  0  0
   -2.2453    1.1532   -1.4140 H   0  0  0  0  0  0  0  0  0  0  0  0
   -4.4211   -1.5737    0.3286 H   0  0  0  0  0  0  0  0  0  0  0  0
   -5.4656   -0.3134    1.0042 H   0  0  0  0  0  0  0  0  0  0  0  0
  1  2  1  0
  2  3  1  0
  3  4  1  0
  4  5  1  0
  5  6  1  0
  6  7  2  0
  6  8  1  0
  8  9  1  0
  9 10  1  0
 10 11  1  0
 11 12  1  0
 11 13  2  0
 10  8  1  0
  1 14  1  0
  1 15  1  0
  3 16  1  0
  3 17  1  0
  4 18  1  0
  4 19  1  0
  5 20  1  0
  8 21  1  1
  9 22  1  0
  9 23  1  0
 10 24  1  6
 12 25  1  0
 12 26  1  0
M  END
$$$$

     RDKit          3D

 26 26  0  0  0  0  0  0  0  0999 V2000
    4.6820    1.0648   -1.3632 N   0  0  0  0  0  0  0  0  0  0  0  0
    4.2138    0.1863   -0.4749 O   0  0  0  0  0  0  0  0  0  0  0  0
    2.8059    0.1470   -0.5855 C   0  0  0  0  0  0  0  0  0  0  0  0
    2.2049   -0.8167    0.3795 C   0  0  0  0  0  0  0  0  0  0  0  0
    0.7741   -0.8269    0.2318 N   0  0  0  0  0  0  0  0  0  0  0  0
   -0.0117    0.3221    0.4445 C   0  0  0  0  0  0  0  0  0  0  0  0
    0.5519    1.3955    0.7784 O   0  0  0  0  0  0  0  0  0  0  0  0
   -1.4846    0.3498    0.2984 C   0  0  2  0  0  0  0  0  0  0  0  0
   -2.1532   -0.8898    0.9278 C   0  0  0  0  0  0  0  0  0  0  0  0
   -2.1945   -0.6083   -0.5698 C   0  0  1  0  0  0  0  0  0  0  0  0
   -3.5298   -0.2148   -1.0489 C   0  0  0  0  0  0  0  0  0  0  0  0
   -4.3575    0.6559   -0.3051 N   0  0  0  0  0  0  0  0  0  0  0  0
   -3.9465   -0.6566   -2.1359 O   0  0  0  0  0  0  0  0  0  0  0  0
    5.6070    1.4440   -1.0502 H   0  0  0  0  0  0  0  0  0  0  0  0
    3.9690    1.8170   -1.5253 H   0  0  0  0  0  0  0  0  0  0  0  0
    2.4847    1.1887   -0.4331 H   0  0  0  0  0  0  0  0  0  0  0  0
    2.6124   -0.2026   -1.6316 H   0  0  0  0  0  0  0  0  0  0  0  0
    2.6445   -1.8236    0.3345 H   0  0  0  0  0  0  0  0  0  0  0  0
    2.4483   -0.4456    1.4192 H   0  0  0  0  0  0  0  0  0  0  0  0
    0.2378   -1.6976   -0.0443 H   0  0  0  0  0  0  0  0  0  0  0  0
   -1.9795    1.3173    0.4949 H   0  0  0  0  0  0  0  0  0  0  0  0
   -3.0550   -0.6704    1.5391 H   0  0  0  0  0  0  0  0  0  0  0  0
   -1.5328   -1.7407    1.1989 H   0  0  0  0  0  0  0  0  0  0  0  0
   -1.6267   -1.3022   -1.2403 H   0  0  0  0  0  0  0  0  0  0  0  0
   -5.1509    1.1928   -0.7150 H   0  0  0  0  0  0  0  0  0  0  0  0
   -4.2135    0.8145    0.7353 H   0  0  0  0  0  0  0  0  0  0  0  0
  1  2  1  0
  2  3  1  0
  3  4  1  0
  4  5  1  0
  5  6  1  0
  6  7  2  0
  6  8  1  0
  8  9  1  0
  9 10  1  0
 10 11  1  0
 11 12  1  0
 11 13  2  0
 10  8  1  0
  1 14  1  0
  1 15  1  0
  3 16  1  0
  3 17  1  0
  4 18  1  0
  4 19  1  0
  5 20  1  0
  8 21  1  1
  9 22  1  0
  9 23  1  0
 10 24  1  6
 12 25  1  0
 12 26  1  0
M  END
$$$$

     RDKit          3D

 26 26  0  0  0  0  0  0  0  0999 V2000
   -3.7071    2.1070   -0.0174 N   0  0  0  0  0  0  0  0  0  0  0  0
   -2.9564    1.0486   -0.3196 O   0  0  0  0  0  0  0  0  0  0  0  0
   -3.0776    0.0319    0.6074 C   0  0  0  0  0  0  0  0  0  0  0  0
   -2.2572   -1.1669    0.3083 C   0  0  0  0  0  0  0  0  0  0  0  0
   -0.8350   -0.9755    0.2355 N   0  0  0  0  0  0  0  0  0  0  0  0
   -0.1676   -0.1553   -0.6862 C   0  0  0  0  0  0  0  0  0  0  0  0
   -0.8221    0.4813   -1.5444 O   0  0  0  0  0  0  0  0  0  0  0  0
    1.3114    0.0099   -0.7081 C   0  0  2  0  0  0  0  0  0  0  0  0
    2.0434   -1.3275   -0.5952 C   0  0  0  0  0  0  0  0  0  0  0  0
    2.1151   -0.2872    0.5016 C   0  0  1  0  0  0  0  0  0  0  0  0
    3.4403    0.3627    0.6004 C   0  0  0  0  0  0  0  0  0  0  0  0
    4.2202    0.7139   -0.5308 N   0  0  0  0  0  0  0  0  0  0  0  0
    3.9187    0.6262    1.7298 O   0  0  0  0  0  0  0  0  0  0  0  0
   -3.1641    2.9551    0.2494 H   0  0  0  0  0  0  0  0  0  0  0  0
   -4.4253    2.3346   -0.7398 H   0  0  0  0  0  0  0  0  0  0  0  0
   -4.1706   -0.2635    0.5703 H   0  0  0  0  0  0  0  0  0  0  0  0
   -2.9276    0.4151    1.6519 H   0  0  0  0  0  0  0  0  0  0  0  0
   -2.6440   -1.6404   -0.6465 H   0  0  0  0  0  0  0  0  0  0  0  0
   -2.4734   -1.9763    1.0724 H   0  0  0  0  0  0  0  0  0  0  0  0
   -0.1797   -1.4819    0.9245 H   0  0  0  0  0  0  0  0  0  0  0  0
    1.7245    0.6817   -1.4792 H   0  0  0  0  0  0  0  0  0  0  0  0
    2.9208   -1.5026   -1.2443 H   0  0  0  0  0  0  0  0  0  0  0  0
    1.4864   -2.2245   -0.3222 H   0  0  0  0  0  0  0  0  0  0  0  0
    1.6276   -0.5000    1.4647 H   0  0  0  0  0  0  0  0  0  0  0  0
    4.0610    1.6513   -0.9545 H   0  0  0  0  0  0  0  0  0  0  0  0
    4.9383    0.0823   -0.9526 H   0  0  0  0  0  0  0  0  0  0  0  0
  1  2  1  0
  2  3  1  0
  3  4  1  0
  4  5  1  0
  5  6  1  0
  6  7  2  0
  6  8  1  0
  8  9  1  0
  9 10  1  0
 10 11  1  0
 11 12  1  0
 11 13  2  0
 10  8  1  0
  1 14  1  0
  1 15  1  0
  3 16  1  0
  3 17  1  0
  4 18  1  0
  4 19  1  0
  5 20  1  0
  8 21  1  6
  9 22  1  0
  9 23  1  0
 10 24  1  1
 12 25  1  0
 12 26  1  0
M  END
$$$$

     RDKit          3D

 26 26  0  0  0  0  0  0  0  0999 V2000
   -5.0951    0.6196   -0.3353 N   0  0  0  0  0  0  0  0  0  0  0  0
   -4.4464   -0.3465    0.4517 O   0  0  0  0  0  0  0  0  0  0  0  0
   -3.2113   -0.5397   -0.2951 C   0  0  0  0  0  0  0  0  0  0  0  0
   -2.1280   -0.0661    0.6017 C   0  0  0  0  0  0  0  0  0  0  0  0
   -0.8467   -0.1896    0.0449 N   0  0  0  0  0  0  0  0  0  0  0  0
    0.2835    0.3656    0.6444 C   0  0  0  0  0  0  0  0  0  0  0  0
    0.0340    1.0117    1.7859 O   0  0  0  0  0  0  0  0  0  0  0  0
    1.6667    0.3680    0.1935 C   0  0  2  0  0  0  0  0  0  0  0  0
    1.9085    0.2189   -1.2452 C   0  0  0  0  0  0  0  0  0  0  0  0
    2.3804   -0.8412   -0.2553 C   0  0  1  0  0  0  0  0  0  0  0  0
    3.8769   -0.8760   -0.1227 C   0  0  0  0  0  0  0  0  0  0  0  0
    4.6209    0.3351    0.0513 N   0  0  0  0  0  0  0  0  0  0  0  0
    4.4762   -1.9606   -0.1532 O   0  0  0  0  0  0  0  0  0  0  0  0
   -5.1680    1.4645    0.3790 H   0  0  0  0  0  0  0  0  0  0  0  0
   -4.4327    0.9662   -1.1310 H   0  0  0  0  0  0  0  0  0  0  0  0
   -3.2208   -0.2314   -1.3059 H   0  0  0  0  0  0  0  0  0  0  0  0
   -3.1046   -1.7079   -0.2773 H   0  0  0  0  0  0  0  0  0  0  0  0
   -2.2131   -0.6050    1.6155 H   0  0  0  0  0  0  0  0  0  0  0  0
   -2.2875    1.0459    0.8649 H   0  0  0  0  0  0  0  0  0  0  0  0
   -0.7406   -0.7276   -0.8857 H   0  0  0  0  0  0  0  0  0  0  0  0
    2.2694    1.0823    0.7717 H   0  0  0  0  0  0  0  0  0  0  0  0
    1.0382   -0.0605   -1.9026 H   0  0  0  0  0  0  0  0  0  0  0  0
    2.6627    0.8142   -1.7492 H   0  0  0  0  0  0  0  0  0  0  0  0
    1.9281   -1.8165   -0.3276 H   0  0  0  0  0  0  0  0  0  0  0  0
    5.5763    0.4879   -0.2832 H   0  0  0  0  0  0  0  0  0  0  0  0
    4.1729    1.1887    0.4938 H   0  0  0  0  0  0  0  0  0  0  0  0
  1  2  1  0
  2  3  1  0
  3  4  1  0
  4  5  1  0
  5  6  1  0
  6  7  2  0
  6  8  1  0
  8  9  1  0
  9 10  1  0
 10 11  1  0
 11 12  1  0
 11 13  2  0
 10  8  1  0
  1 14  1  0
  1 15  1  0
  3 16  1  0
  3 17  1  0
  4 18  1  0
  4 19  1  0
  5 20  1  0
  8 21  1  1
  9 22  1  0
  9 23  1  0
 10 24  1  6
 12 25  1  0
 12 26  1  0
M  END
$$$$

     RDKit          3D

 26 26  0  0  0  0  0  0  0  0999 V2000
   -4.5425   -0.9251    1.3368 N   0  0  0  0  0  0  0  0  0  0  0  0
   -3.4920   -0.1553    1.0140 O   0  0  0  0  0  0  0  0  0  0  0  0
   -3.3494   -0.2054   -0.3737 C   0  0  0  0  0  0  0  0  0  0  0  0
   -2.2030    0.6193   -0.8597 C   0  0  0  0  0  0  0  0  0  0  0  0
   -0.9524    0.1606   -0.2846 N   0  0  0  0  0  0  0  0  0  0  0  0
    0.2882    0.7715   -0.5813 C   0  0  0  0  0  0  0  0  0  0  0  0
    0.3019    1.7349   -1.3629 O   0  0  0  0  0  0  0  0  0  0  0  0
    1.5523    0.2583    0.0403 C   0  0  2  0  0  0  0  0  0  0  0  0
    2.5219    1.3350    0.5287 C   0  0  0  0  0  0  0  0  0  0  0  0
    2.8469    0.4099   -0.6274 C   0  0  1  0  0  0  0  0  0  0  0  0
    3.8883   -0.6359   -0.3980 C   0  0  0  0  0  0  0  0  0  0  0  0
    3.8490   -1.3845    0.8083 N   0  0  0  0  0  0  0  0  0  0  0  0
    4.7962   -0.8912   -1.2103 O   0  0  0  0  0  0  0  0  0  0  0  0
   -5.4052   -0.3562    1.2451 H   0  0  0  0  0  0  0  0  0  0  0  0
   -4.6024   -1.7262    0.6639 H   0  0  0  0  0  0  0  0  0  0  0  0
   -3.1901   -1.2540   -0.6775 H   0  0  0  0  0  0  0  0  0  0  0  0
   -4.2771    0.2031   -0.8612 H   0  0  0  0  0  0  0  0  0  0  0  0
   -2.3125    1.6930   -0.6201 H   0  0  0  0  0  0  0  0  0  0  0  0
   -2.1168    0.4626   -1.9563 H   0  0  0  0  0  0  0  0  0  0  0  0
   -0.9738   -0.6488    0.3704 H   0  0  0  0  0  0  0  0  0  0  0  0
    1.4390   -0.6047    0.7241 H   0  0  0  0  0  0  0  0  0  0  0  0
    2.2840    2.3848    0.3091 H   0  0  0  0  0  0  0  0  0  0  0  0
    3.0068    1.1730    1.5075 H   0  0  0  0  0  0  0  0  0  0  0  0
    2.9707    0.9367   -1.6046 H   0  0  0  0  0  0  0  0  0  0  0  0
    3.9164   -2.4183    0.7609 H   0  0  0  0  0  0  0  0  0  0  0  0
    3.7557   -0.9370    1.7332 H   0  0  0  0  0  0  0  0  0  0  0  0
  1  2  1  0
  2  3  1  0
  3  4  1  0
  4  5  1  0
  5  6  1  0
  6  7  2  0
  6  8  1  0
  8  9  1  0
  9 10  1  0
 10 11  1  0
 11 12  1  0
 11 13  2  0
 10  8  1  0
  1 14  1  0
  1 15  1  0
  3 16  1  0
  3 17  1  0
  4 18  1  0
  4 19  1  0
  5 20  1  0
  8 21  1  1
  9 22  1  0
  9 23  1  0
 10 24  1  6
 12 25  1  0
 12 26  1  0
M  END
$$$$

     RDKit          3D

 26 26  0  0  0  0  0  0  0  0999 V2000
    5.1431   -0.0964    0.4797 N   0  0  0  0  0  0  0  0  0  0  0  0
    4.1535    0.4895   -0.2334 O   0  0  0  0  0  0  0  0  0  0  0  0
    2.9063   -0.0598    0.0757 C   0  0  0  0  0  0  0  0  0  0  0  0
    1.8754    0.6380   -0.7492 C   0  0  0  0  0  0  0  0  0  0  0  0
    0.5299    0.1595   -0.5232 N   0  0  0  0  0  0  0  0  0  0  0  0
   -0.1124    0.2166    0.7433 C   0  0  0  0  0  0  0  0  0  0  0  0
    0.5244    0.7083    1.7111 O   0  0  0  0  0  0  0  0  0  0  0  0
   -1.4856   -0.3031    0.8501 C   0  0  2  0  0  0  0  0  0  0  0  0
   -2.0664   -1.2841   -0.0463 C   0  0  0  0  0  0  0  0  0  0  0  0
   -2.3782    0.1404   -0.3129 C   0  0  1  0  0  0  0  0  0  0  0  0
   -3.6359    0.7590    0.1021 C   0  0  0  0  0  0  0  0  0  0  0  0
   -4.3643    0.3361    1.2306 N   0  0  0  0  0  0  0  0  0  0  0  0
   -4.1061    1.7149   -0.5665 O   0  0  0  0  0  0  0  0  0  0  0  0
    4.7832   -0.8676    1.0846 H   0  0  0  0  0  0  0  0  0  0  0  0
    5.9618   -0.3651   -0.0802 H   0  0  0  0  0  0  0  0  0  0  0  0
    2.6772    0.0389    1.1357 H   0  0  0  0  0  0  0  0  0  0  0  0
    2.9253   -1.1414   -0.2015 H   0  0  0  0  0  0  0  0  0  0  0  0
    1.9559    1.7413   -0.5567 H   0  0  0  0  0  0  0  0  0  0  0  0
    2.1106    0.5231   -1.8270 H   0  0  0  0  0  0  0  0  0  0  0  0
   -0.0215   -0.2574   -1.3243 H   0  0  0  0  0  0  0  0  0  0  0  0
   -1.9027   -0.2203    1.8745 H   0  0  0  0  0  0  0  0  0  0  0  0
   -2.8858   -1.9397    0.3719 H   0  0  0  0  0  0  0  0  0  0  0  0
   -1.4396   -1.8473   -0.7634 H   0  0  0  0  0  0  0  0  0  0  0  0
   -1.8863    0.5541   -1.2206 H   0  0  0  0  0  0  0  0  0  0  0  0
   -4.0108    0.5313    2.1763 H   0  0  0  0  0  0  0  0  0  0  0  0
   -5.2513   -0.1688    1.1030 H   0  0  0  0  0  0  0  0  0  0  0  0
  1  2  1  0
  2  3  1  0
  3  4  1  0
  4  5  1  0
  5  6  1  0
  6  7  2  0
  6  8  1  0
  8  9  1  0
  9 10  1  0
 10 11  1  0
 11 12  1  0
 11 13  2  0
 10  8  1  0
  1 14  1  0
  1 15  1  0
  3 16  1  0
  3 17  1  0
  4 18  1  0
  4 19  1  0
  5 20  1  0
  8 21  1  1
  9 22  1  0
  9 23  1  0
 10 24  1  6
 12 25  1  0
 12 26  1  0
M  END
$$$$
