
     RDKit          3D

 24 24  0  0  0  0  0  0  0  0999 V2000
    3.0731   -0.7114   -1.4829 O   0  0  0  0  0  0  0  0  0  0  0  0
    2.0508    0.2601   -1.5052 C   0  0  0  0  0  0  0  0  0  0  0  0
    1.6989    0.6666   -0.1305 C   0  0  0  0  0  0  0  0  0  0  0  0
    2.4379    1.5680    0.5665 N   0  0  0  0  0  0  0  0  0  0  0  0
    1.9020    1.7363    1.7681 C   0  0  0  0  0  0  0  0  0  0  0  0
    0.7941    0.9266    1.8476 C   0  0  0  0  0  0  0  0  0  0  0  0
    0.6875    0.2707    0.6536 N   0  0  0  0  0  0  0  0  0  0  0  0
   -0.3645   -0.6634    0.3393 C   0  0  0  0  0  0  0  0  0  0  0  0
   -1.5895   -0.0267   -0.2164 C   0  0  1  0  0  0  0  0  0  0  0  0
   -1.2928    0.6453   -1.3793 O   0  0  0  0  0  0  0  0  0  0  0  0
   -2.7055   -0.9965   -0.4774 C   0  0  0  0  0  0  0  0  0  0  0  0
   -3.0673   -1.7186    0.6509 O   0  0  0  0  0  0  0  0  0  0  0  0
    3.2281   -0.9781   -0.5547 H   0  0  0  0  0  0  0  0  0  0  0  0
    2.3508    1.1142   -2.1451 H   0  0  0  0  0  0  0  0  0  0  0  0
    1.1885   -0.2414   -1.9850 H   0  0  0  0  0  0  0  0  0  0  0  0
    2.2305    2.3809    2.5848 H   0  0  0  0  0  0  0  0  0  0  0  0
    0.1370    0.8370    2.7065 H   0  0  0  0  0  0  0  0  0  0  0  0
   -0.5972   -1.2496    1.2686 H   0  0  0  0  0  0  0  0  0  0  0  0
    0.0304   -1.4153   -0.3954 H   0  0  0  0  0  0  0  0  0  0  0  0
   -1.9389    0.7301    0.5409 H   0  0  0  0  0  0  0  0  0  0  0  0
   -1.8562    1.4573   -1.4466 H   0  0  0  0  0  0  0  0  0  0  0  0
   -2.4131   -1.7343   -1.2508 H   0  0  0  0  0  0  0  0  0  0  0  0
   -3.5902   -0.4558   -0.8546 H   0  0  0  0  0  0  0  0  0  0  0  0
   -2.3941   -2.4022    0.8970 H   0  0  0  0  0  0  0  0  0  0  0  0
  1  2  1  0
  2  3  1  0
  3  4  2  0
  4  5  1  0
  5  6  2  0
  6  7  1  0
  7  8  1  0
  8  9  1  0
  9 10  1  0
  9 11  1  0
 11 12  1  0
  7  3  1  0
  1 13  1  0
  2 14  1  0
  2 15  1  0
  5 16  1  0
  6 17  1  0
  8 18  1  0
  8 19  1  0
  9 20  1  1
 10 21  1  0
 11 22  1  0
 11 23  1  0
 12 24  1  0
M  END
$$$$

     RDKit          3D

 24 24  0  0  0  0  0  0  0  0999 V2000
   -1.1673    2.0036   -0.7212 O   0  0  0  0  0  0  0  0  0  0  0  0
   -2.1082    1.3679    0.0222 C   0  0  0  0  0  0  0  0  0  0  0  0
   -1.8732   -0.0415    0.2997 C   0  0  0  0  0  0  0  0  0  0  0  0
   -2.7289   -0.7910    1.0554 N   0  0  0  0  0  0  0  0  0  0  0  0
   -2.2626   -2.0261    1.1381 C   0  0  0  0  0  0  0  0  0  0  0  0
   -1.0861   -2.0645    0.4205 C   0  0  0  0  0  0  0  0  0  0  0  0
   -0.8644   -0.8217   -0.0907 N   0  0  0  0  0  0  0  0  0  0  0  0
    0.2365   -0.4173   -0.8959 C   0  0  0  0  0  0  0  0  0  0  0  0
    1.4039    0.1009   -0.0640 C   0  0  1  0  0  0  0  0  0  0  0  0
    1.8948   -0.8374    0.8102 O   0  0  0  0  0  0  0  0  0  0  0  0
    2.5060    0.6343   -0.9652 C   0  0  0  0  0  0  0  0  0  0  0  0
    3.5152    1.2303   -0.2583 O   0  0  0  0  0  0  0  0  0  0  0  0
   -1.5784    2.7709   -1.1956 H   0  0  0  0  0  0  0  0  0  0  0  0
   -3.0927    1.4479   -0.5249 H   0  0  0  0  0  0  0  0  0  0  0  0
   -2.2769    1.9792    0.9556 H   0  0  0  0  0  0  0  0  0  0  0  0
   -2.7290   -2.8387    1.6715 H   0  0  0  0  0  0  0  0  0  0  0  0
   -0.4164   -2.9094    0.2598 H   0  0  0  0  0  0  0  0  0  0  0  0
    0.6460   -1.3495   -1.3916 H   0  0  0  0  0  0  0  0  0  0  0  0
    0.0301    0.2692   -1.7081 H   0  0  0  0  0  0  0  0  0  0  0  0
    1.0530    0.9752    0.5328 H   0  0  0  0  0  0  0  0  0  0  0  0
    2.2002   -0.3860    1.6422 H   0  0  0  0  0  0  0  0  0  0  0  0
    2.9237   -0.2770   -1.4847 H   0  0  0  0  0  0  0  0  0  0  0  0
    2.0893    1.2594   -1.7715 H   0  0  0  0  0  0  0  0  0  0  0  0
    3.6853    0.7215    0.5661 H   0  0  0  0  0  0  0  0  0  0  0  0
  1  2  1  0
  2  3  1  0
  3  4  2  0
  4  5  1  0
  5  6  2  0
  6  7  1  0
  7  8  1  0
  8  9  1  0
  9 10  1  0
  9 11  1  0
 11 12  1  0
  7  3  1  0
  1 13  1  0
  2 14  1  0
  2 15  1  0
  5 16  1  0
  6 17  1  0
  8 18  1  0
  8 19  1  0
  9 20  1  1
 10 21  1  0
 11 22  1  0
 11 23  1  0
 12 24  1  0
M  END
$$$$

     RDKit          3D

 24 24  0  0  0  0  0  0  0  0999 V2000
    3.4796   -1.5678    0.1566 O   0  0  0  0  0  0  0  0  0  0  0  0
    2.1843   -1.2163   -0.1527 C   0  0  0  0  0  0  0  0  0  0  0  0
    1.8390    0.1522    0.2910 C   0  0  0  0  0  0  0  0  0  0  0  0
    2.6255    1.0478    0.9359 N   0  0  0  0  0  0  0  0  0  0  0  0
    1.9261    2.1651    1.1520 C   0  0  0  0  0  0  0  0  0  0  0  0
    0.6784    1.9449    0.6244 C   0  0  0  0  0  0  0  0  0  0  0  0
    0.6324    0.7080    0.0979 N   0  0  0  0  0  0  0  0  0  0  0  0
   -0.5279    0.1275   -0.5478 C   0  0  0  0  0  0  0  0  0  0  0  0
   -1.3997   -0.6052    0.4593 C   0  0  1  0  0  0  0  0  0  0  0  0
   -1.8063    0.3105    1.4076 O   0  0  0  0  0  0  0  0  0  0  0  0
   -2.5926   -1.2277   -0.1934 C   0  0  0  0  0  0  0  0  0  0  0  0
   -3.3702   -0.2363   -0.8187 O   0  0  0  0  0  0  0  0  0  0  0  0
    3.9129   -0.9790    0.8177 H   0  0  0  0  0  0  0  0  0  0  0  0
    2.0048   -1.2626   -1.2522 H   0  0  0  0  0  0  0  0  0  0  0  0
    1.4486   -1.9107    0.3299 H   0  0  0  0  0  0  0  0  0  0  0  0
    2.3277    3.0322    1.6503 H   0  0  0  0  0  0  0  0  0  0  0  0
   -0.1119    2.6654    0.6449 H   0  0  0  0  0  0  0  0  0  0  0  0
   -0.1524   -0.6018   -1.2977 H   0  0  0  0  0  0  0  0  0  0  0  0
   -1.1134    0.8882   -1.1015 H   0  0  0  0  0  0  0  0  0  0  0  0
   -0.8206   -1.4061    0.9470 H   0  0  0  0  0  0  0  0  0  0  0  0
   -2.0998    1.1658    1.0209 H   0  0  0  0  0  0  0  0  0  0  0  0
   -3.1909   -1.7166    0.6119 H   0  0  0  0  0  0  0  0  0  0  0  0
   -2.2717   -1.9601   -0.9437 H   0  0  0  0  0  0  0  0  0  0  0  0
   -3.6018    0.4826   -0.1786 H   0  0  0  0  0  0  0  0  0  0  0  0
  1  2  1  0
  2  3  1  0
  3  4  2  0
  4  5  1  0
  5  6  2  0
  6  7  1  0
  7  8  1  0
  8  9  1  0
  9 10  1  0
  9 11  1  0
 11 12  1  0
  7  3  1  0
  1 13  1  0
  2 14  1  0
  2 15  1  0
  5 16  1  0
  6 17  1  0
  8 18  1  0
  8 19  1  0
  9 20  1  1
 10 21  1  0
 11 22  1  0
 11 23  1  0
 12 24  1  0
M  END
$$$$

     RDKit          3D

 24 24  0  0  0  0  0  0  0  0999 V2000
   -3.5639   -1.3260    0.5573 O   0  0  0  0  0  0  0  0  0  0  0  0
   -2.2938   -1.2894   -0.0044 C   0  0  0  0  0  0  0  0  0  0  0  0
   -1.7656    0.0793    0.0848 C   0  0  0  0  0  0  0  0  0  0  0  0
   -2.4152    1.1255    0.6266 N   0  0  0  0  0  0  0  0  0  0  0  0
   -1.6674    2.2193    0.5516 C   0  0  0  0  0  0  0  0  0  0  0  0
   -0.5056    1.8400   -0.0613 C   0  0  0  0  0  0  0  0  0  0  0  0
   -0.5551    0.5312   -0.3515 N   0  0  0  0  0  0  0  0  0  0  0  0
    0.4533   -0.2505   -0.9914 C   0  0  0  0  0  0  0  0  0  0  0  0
    1.4296   -0.8718   -0.0228 C   0  0  1  0  0  0  0  0  0  0  0  0
    2.3571   -1.6039   -0.7640 O   0  0  0  0  0  0  0  0  0  0  0  0
    2.2262    0.2051    0.7170 C   0  0  0  0  0  0  0  0  0  0  0  0
    2.8881    1.0289   -0.1612 O   0  0  0  0  0  0  0  0  0  0  0  0
   -3.5465   -1.5060    1.5335 H   0  0  0  0  0  0  0  0  0  0  0  0
   -2.4004   -1.6314   -1.0646 H   0  0  0  0  0  0  0  0  0  0  0  0
   -1.6766   -2.0341    0.5313 H   0  0  0  0  0  0  0  0  0  0  0  0
   -1.9249    3.2166    0.9054 H   0  0  0  0  0  0  0  0  0  0  0  0
    0.3324    2.5219   -0.2752 H   0  0  0  0  0  0  0  0  0  0  0  0
    1.0670    0.3916   -1.6799 H   0  0  0  0  0  0  0  0  0  0  0  0
    0.0035   -1.0296   -1.6088 H   0  0  0  0  0  0  0  0  0  0  0  0
    0.9489   -1.4850    0.7459 H   0  0  0  0  0  0  0  0  0  0  0  0
    2.3379   -1.4151   -1.7187 H   0  0  0  0  0  0  0  0  0  0  0  0
    2.9346   -0.3016    1.4027 H   0  0  0  0  0  0  0  0  0  0  0  0
    1.4785    0.8077    1.3033 H   0  0  0  0  0  0  0  0  0  0  0  0
    3.8580    0.7771   -0.2556 H   0  0  0  0  0  0  0  0  0  0  0  0
  1  2  1  0
  2  3  1  0
  3  4  2  0
  4  5  1  0
  5  6  2  0
  6  7  1  0
  7  8  1  0
  8  9  1  0
  9 10  1  0
  9 11  1  0
 11 12  1  0
  7  3  1  0
  1 13  1  0
  2 14  1  0
  2 15  1  0
  5 16  1  0
  6 17  1  0
  8 18  1  0
  8 19  1  0
  9 20  1  1
 10 21  1  0
 11 22  1  0
 11 23  1  0
 12 24  1  0
M  END
$$$$

     RDKit          3D

 24 24  0  0  0  0  0  0  0  0999 V2000
   -3.4673   -1.4659   -0.2728 O   0  0  0  0  0  0  0  0  0  0  0  0
   -2.1681   -1.1474   -0.6524 C   0  0  0  0  0  0  0  0  0  0  0  0
   -1.7418    0.1427   -0.0833 C   0  0  0  0  0  0  0  0  0  0  0  0
   -2.5209    0.9179    0.7098 N   0  0  0  0  0  0  0  0  0  0  0  0
   -1.8217    2.0137    1.0463 C   0  0  0  0  0  0  0  0  0  0  0  0
   -0.5844    1.8842    0.4312 C   0  0  0  0  0  0  0  0  0  0  0  0
   -0.5468    0.7301   -0.2605 N   0  0  0  0  0  0  0  0  0  0  0  0
    0.5531    0.2335   -1.0305 C   0  0  0  0  0  0  0  0  0  0  0  0
    1.4925   -0.6285   -0.2167 C   0  0  1  0  0  0  0  0  0  0  0  0
    2.5114   -1.0551   -1.0422 O   0  0  0  0  0  0  0  0  0  0  0  0
    2.0829    0.1058    0.9510 C   0  0  0  0  0  0  0  0  0  0  0  0
    2.9221   -0.7845    1.6232 O   0  0  0  0  0  0  0  0  0  0  0  0
   -3.4707   -2.1623    0.4559 H   0  0  0  0  0  0  0  0  0  0  0  0
   -1.4805   -1.9659   -0.3653 H   0  0  0  0  0  0  0  0  0  0  0  0
   -2.1365   -1.0939   -1.7664 H   0  0  0  0  0  0  0  0  0  0  0  0
   -2.1377    2.8332    1.6635 H   0  0  0  0  0  0  0  0  0  0  0  0
    0.2264    2.5964    0.4945 H   0  0  0  0  0  0  0  0  0  0  0  0
    0.2318   -0.3829   -1.8974 H   0  0  0  0  0  0  0  0  0  0  0  0
    1.1473    1.0829   -1.4765 H   0  0  0  0  0  0  0  0  0  0  0  0
    0.8823   -1.4712    0.1997 H   0  0  0  0  0  0  0  0  0  0  0  0
    2.2741   -0.9421   -2.0056 H   0  0  0  0  0  0  0  0  0  0  0  0
    2.6538    0.9871    0.6101 H   0  0  0  0  0  0  0  0  0  0  0  0
    1.2643    0.3950    1.6626 H   0  0  0  0  0  0  0  0  0  0  0  0
    3.8342   -0.8229    1.2218 H   0  0  0  0  0  0  0  0  0  0  0  0
  1  2  1  0
  2  3  1  0
  3  4  2  0
  4  5  1  0
  5  6  2  0
  6  7  1  0
  7  8  1  0
  8  9  1  0
  9 10  1  0
  9 11  1  0
 11 12  1  0
  7  3  1  0
  1 13  1  0
  2 14  1  0
  2 15  1  0
  5 16  1  0
  6 17  1  0
  8 18  1  0
  8 19  1  0
  9 20  1  1
 10 21  1  0
 11 22  1  0
 11 23  1  0
 12 24  1  0
M  END
$$$$

     RDKit          3D

 24 24  0  0  0  0  0  0  0  0999 V2000
    2.2829   -0.2337   -1.7803 O   0  0  0  0  0  0  0  0  0  0  0  0
    2.5335   -0.0980   -0.4012 C   0  0  0  0  0  0  0  0  0  0  0  0
    1.5679    0.8765    0.1733 C   0  0  0  0  0  0  0  0  0  0  0  0
    1.7127    2.1946    0.2893 N   0  0  0  0  0  0  0  0  0  0  0  0
    0.6078    2.6972    0.8621 C   0  0  0  0  0  0  0  0  0  0  0  0
   -0.2469    1.6431    1.1059 C   0  0  0  0  0  0  0  0  0  0  0  0
    0.3597    0.5207    0.6746 N   0  0  0  0  0  0  0  0  0  0  0  0
   -0.2074   -0.7911    0.7520 C   0  0  0  0  0  0  0  0  0  0  0  0
   -1.0088   -1.1261   -0.4935 C   0  0  1  0  0  0  0  0  0  0  0  0
   -1.5504   -2.4029   -0.3981 O   0  0  0  0  0  0  0  0  0  0  0  0
   -2.1369   -0.1278   -0.6922 C   0  0  0  0  0  0  0  0  0  0  0  0
   -2.9933   -0.1965    0.3835 O   0  0  0  0  0  0  0  0  0  0  0  0
    2.9990   -0.7248   -2.2277 H   0  0  0  0  0  0  0  0  0  0  0  0
    3.5719    0.3087   -0.2569 H   0  0  0  0  0  0  0  0  0  0  0  0
    2.4596   -1.0983    0.0449 H   0  0  0  0  0  0  0  0  0  0  0  0
    0.3906    3.7338    1.1042 H   0  0  0  0  0  0  0  0  0  0  0  0
   -1.2286    1.7409    1.5667 H   0  0  0  0  0  0  0  0  0  0  0  0
    0.6274   -1.5138    0.8414 H   0  0  0  0  0  0  0  0  0  0  0  0
   -0.8397   -0.8455    1.6449 H   0  0  0  0  0  0  0  0  0  0  0  0
   -0.3418   -1.1074   -1.3781 H   0  0  0  0  0  0  0  0  0  0  0  0
   -0.9166   -2.9574    0.1040 H   0  0  0  0  0  0  0  0  0  0  0  0
   -2.6460   -0.2845   -1.6524 H   0  0  0  0  0  0  0  0  0  0  0  0
   -1.7119    0.9076   -0.7343 H   0  0  0  0  0  0  0  0  0  0  0  0
   -3.2846   -1.1153    0.5498 H   0  0  0  0  0  0  0  0  0  0  0  0
  1  2  1  0
  2  3  1  0
  3  4  2  0
  4  5  1  0
  5  6  2  0
  6  7  1  0
  7  8  1  0
  8  9  1  0
  9 10  1  0
  9 11  1  0
 11 12  1  0
  7  3  1  0
  1 13  1  0
  2 14  1  0
  2 15  1  0
  5 16  1  0
  6 17  1  0
  8 18  1  0
  8 19  1  0
  9 20  1  6
 10 21  1  0
 11 22  1  0
 11 23  1  0
 12 24  1  0
M  END
$$$$

     RDKit          3D

 24 24  0  0  0  0  0  0  0  0999 V2000
   -1.3806    1.8868    1.6817 O   0  0  0  0  0  0  0  0  0  0  0  0
   -1.9127    1.4706    0.4607 C   0  0  0  0  0  0  0  0  0  0  0  0
   -1.8513   -0.0126    0.3691 C   0  0  0  0  0  0  0  0  0  0  0  0
   -2.8346   -0.8384    0.7883 N   0  0  0  0  0  0  0  0  0  0  0  0
   -2.4475   -2.1018    0.5556 C   0  0  0  0  0  0  0  0  0  0  0  0
   -1.2052   -2.0390   -0.0158 C   0  0  0  0  0  0  0  0  0  0  0  0
   -0.8523   -0.7442   -0.1236 N   0  0  0  0  0  0  0  0  0  0  0  0
    0.3729   -0.2273   -0.6676 C   0  0  0  0  0  0  0  0  0  0  0  0
    1.4363   -0.0850    0.4131 C   0  0  1  0  0  0  0  0  0  0  0  0
    1.6926   -1.3131    0.9766 O   0  0  0  0  0  0  0  0  0  0  0  0
    2.6848    0.4392   -0.3083 C   0  0  0  0  0  0  0  0  0  0  0  0
    2.4131    1.6752   -0.8705 O   0  0  0  0  0  0  0  0  0  0  0  0
   -1.2344    2.8819    1.6046 H   0  0  0  0  0  0  0  0  0  0  0  0
   -2.9815    1.7953    0.4118 H   0  0  0  0  0  0  0  0  0  0  0  0
   -1.3547    1.9076   -0.3696 H   0  0  0  0  0  0  0  0  0  0  0  0
   -2.9858   -3.0293    0.7648 H   0  0  0  0  0  0  0  0  0  0  0  0
   -0.5963   -2.8582   -0.3320 H   0  0  0  0  0  0  0  0  0  0  0  0
    0.8143   -0.8728   -1.4571 H   0  0  0  0  0  0  0  0  0  0  0  0
    0.2089    0.7982   -1.0677 H   0  0  0  0  0  0  0  0  0  0  0  0
    1.1215    0.6074    1.1998 H   0  0  0  0  0  0  0  0  0  0  0  0
    1.8921   -1.9882    0.2992 H   0  0  0  0  0  0  0  0  0  0  0  0
    2.9745   -0.2388   -1.1250 H   0  0  0  0  0  0  0  0  0  0  0  0
    3.5081    0.4604    0.4134 H   0  0  0  0  0  0  0  0  0  0  0  0
    2.5178    2.4260   -0.2603 H   0  0  0  0  0  0  0  0  0  0  0  0
  1  2  1  0
  2  3  1  0
  3  4  2  0
  4  5  1  0
  5  6  2  0
  6  7  1  0
  7  8  1  0
  8  9  1  0
  9 10  1  0
  9 11  1  0
 11 12  1  0
  7  3  1  0
  1 13  1  0
  2 14  1  0
  2 15  1  0
  5 16  1  0
  6 17  1  0
  8 18  1  0
  8 19  1  0
  9 20  1  1
 10 21  1  0
 11 22  1  0
 11 23  1  0
 12 24  1  0
M  END
$$$$

     RDKit          3D

 24 24  0  0  0  0  0  0  0  0999 V2000
   -3.3448    1.5274   -0.9511 O   0  0  0  0  0  0  0  0  0  0  0  0
   -2.0068    1.1565   -0.9384 C   0  0  0  0  0  0  0  0  0  0  0  0
   -1.8241   -0.1936   -0.3423 C   0  0  0  0  0  0  0  0  0  0  0  0
   -2.7697   -1.0225    0.1478 N   0  0  0  0  0  0  0  0  0  0  0  0
   -2.1597   -2.1370    0.5859 C   0  0  0  0  0  0  0  0  0  0  0  0
   -0.8125   -1.9974    0.3640 C   0  0  0  0  0  0  0  0  0  0  0  0
   -0.6289   -0.7879   -0.2108 N   0  0  0  0  0  0  0  0  0  0  0  0
    0.6748   -0.2779   -0.5970 C   0  0  0  0  0  0  0  0  0  0  0  0
    1.2228    0.4748    0.5942 C   0  0  1  0  0  0  0  0  0  0  0  0
    1.3296   -0.3902    1.6659 O   0  0  0  0  0  0  0  0  0  0  0  0
    2.5818    1.0933    0.2643 C   0  0  0  0  0  0  0  0  0  0  0  0
    3.5022    0.1034   -0.0624 O   0  0  0  0  0  0  0  0  0  0  0  0
   -3.3717    2.5230   -1.0030 H   0  0  0  0  0  0  0  0  0  0  0  0
   -1.4619    1.9018   -0.3346 H   0  0  0  0  0  0  0  0  0  0  0  0
   -1.6466    1.1446   -2.0040 H   0  0  0  0  0  0  0  0  0  0  0  0
   -2.6360   -3.0096    1.0409 H   0  0  0  0  0  0  0  0  0  0  0  0
   -0.0613   -2.7315    0.6115 H   0  0  0  0  0  0  0  0  0  0  0  0
    0.4952    0.4349   -1.4368 H   0  0  0  0  0  0  0  0  0  0  0  0
    1.3415   -1.0596   -0.9563 H   0  0  0  0  0  0  0  0  0  0  0  0
    0.5503    1.3173    0.8372 H   0  0  0  0  0  0  0  0  0  0  0  0
    1.7323   -1.2452    1.3888 H   0  0  0  0  0  0  0  0  0  0  0  0
    2.4310    1.8167   -0.5504 H   0  0  0  0  0  0  0  0  0  0  0  0
    2.9411    1.6429    1.1445 H   0  0  0  0  0  0  0  0  0  0  0  0
    3.9216   -0.2841    0.7421 H   0  0  0  0  0  0  0  0  0  0  0  0
  1  2  1  0
  2  3  1  0
  3  4  2  0
  4  5  1  0
  5  6  2  0
  6  7  1  0
  7  8  1  0
  8  9  1  0
  9 10  1  0
  9 11  1  0
 11 12  1  0
  7  3  1  0
  1 13  1  0
  2 14  1  0
  2 15  1  0
  5 16  1  0
  6 17  1  0
  8 18  1  0
  8 19  1  0
  9 20  1  1
 10 21  1  0
 11 22  1  0
 11 23  1  0
 12 24  1  0
M  END
$$$$
