
     RDKit          3D

 22 21  0  0  0  0  0  0  0  0999 V2000
   -4.3645   -0.3374    0.8169 N   0  0  0  0  0  0  0  0  0  0  0  0
   -3.1234   -0.4643    0.1095 C   0  0  0  0  0  0  0  0  0  0  0  0
   -2.4799   -1.5276    0.1903 O   0  0  0  0  0  0  0  0  0  0  0  0
   -2.6997    0.7278   -0.6868 C   0  0  0  0  0  0  0  0  0  0  0  0
   -1.4424    0.3955   -1.3080 N   0  0  0  0  0  0  0  0  0  0  0  0
   -0.3337    0.0676   -0.4930 C   0  0  0  0  0  0  0  0  0  0  0  0
   -0.5009    0.0852    0.7489 O   0  0  0  0  0  0  0  0  0  0  0  0
    0.9374   -0.2749   -1.0103 N   0  0  0  0  0  0  0  0  0  0  0  0
    2.0160   -0.5952   -0.2598 O   0  0  0  0  0  0  0  0  0  0  0  0
    3.0523    0.2662   -0.6165 C   0  0  0  0  0  0  0  0  0  0  0  0
    4.2756   -0.0231    0.1632 C   0  0  0  0  0  0  0  0  0  0  0  0
    5.3251    0.6352   -0.0041 O   0  0  0  0  0  0  0  0  0  0  0  0
    4.2370   -1.0465    1.0910 O   0  0  0  0  0  0  0  0  0  0  0  0
   -4.4350   -0.4595    1.8427 H   0  0  0  0  0  0  0  0  0  0  0  0
   -5.2050   -0.1114    0.2270 H   0  0  0  0  0  0  0  0  0  0  0  0
   -2.6447    1.6270   -0.0371 H   0  0  0  0  0  0  0  0  0  0  0  0
   -3.4664    0.9917   -1.4706 H   0  0  0  0  0  0  0  0  0  0  0  0
   -1.3701    0.4017   -2.3431 H   0  0  0  0  0  0  0  0  0  0  0  0
    1.0771   -0.2883   -2.0481 H   0  0  0  0  0  0  0  0  0  0  0  0
    3.3180    0.1544   -1.7119 H   0  0  0  0  0  0  0  0  0  0  0  0
    2.7538    1.3357   -0.5110 H   0  0  0  0  0  0  0  0  0  0  0  0
    5.0731   -1.5601    1.3305 H   0  0  0  0  0  0  0  0  0  0  0  0
  1  2  1  0
  2  3  2  0
  2  4  1  0
  4  5  1  0
  5  6  1  0
  6  7  2  0
  6  8  1  0
  8  9  1  0
  9 10  1  0
 10 11  1  0
 11 12  2  0
 11 13  1  0
  1 14  1  0
  1 15  1  0
  4 16  1  0
  4 17  1  0
  5 18  1  0
  8 19  1  0
 10 20  1  0
 10 21  1  0
 13 22  1  0
M  END
$$$$

     RDKit          3D

 22 21  0  0  0  0  0  0  0  0999 V2000
    4.4855   -0.0064    0.6197 N   0  0  0  0  0  0  0  0  0  0  0  0
    3.1535    0.3210    0.2917 C   0  0  0  0  0  0  0  0  0  0  0  0
    2.4213    0.7989    1.1862 O   0  0  0  0  0  0  0  0  0  0  0  0
    2.6875    0.0854   -1.0872 C   0  0  0  0  0  0  0  0  0  0  0  0
    1.2964    0.4643   -1.2619 N   0  0  0  0  0  0  0  0  0  0  0  0
    0.2694   -0.1543   -0.4792 C   0  0  0  0  0  0  0  0  0  0  0  0
    0.6801   -1.0351    0.3516 O   0  0  0  0  0  0  0  0  0  0  0  0
   -1.1156    0.1758   -0.6024 N   0  0  0  0  0  0  0  0  0  0  0  0
   -2.0132   -0.4482    0.1817 O   0  0  0  0  0  0  0  0  0  0  0  0
   -3.2243    0.2230    0.0674 C   0  0  0  0  0  0  0  0  0  0  0  0
   -4.2427   -0.4025    0.9191 C   0  0  0  0  0  0  0  0  0  0  0  0
   -5.4051    0.0829    0.9231 O   0  0  0  0  0  0  0  0  0  0  0  0
   -3.9108   -1.5033    1.6956 O   0  0  0  0  0  0  0  0  0  0  0  0
    5.0642    0.6882    1.1598 H   0  0  0  0  0  0  0  0  0  0  0  0
    4.9514   -0.8953    0.3686 H   0  0  0  0  0  0  0  0  0  0  0  0
    3.3090    0.7485   -1.7580 H   0  0  0  0  0  0  0  0  0  0  0  0
    2.9138   -0.9367   -1.3906 H   0  0  0  0  0  0  0  0  0  0  0  0
    1.0222    1.1893   -1.9529 H   0  0  0  0  0  0  0  0  0  0  0  0
   -1.4164    0.8918   -1.2924 H   0  0  0  0  0  0  0  0  0  0  0  0
   -3.5447    0.2646   -1.0050 H   0  0  0  0  0  0  0  0  0  0  0  0
   -3.0165    1.2608    0.4485 H   0  0  0  0  0  0  0  0  0  0  0  0
   -4.3651   -1.5984    2.6165 H   0  0  0  0  0  0  0  0  0  0  0  0
  1  2  1  0
  2  3  2  0
  2  4  1  0
  4  5  1  0
  5  6  1  0
  6  7  2  0
  6  8  1  0
  8  9  1  0
  9 10  1  0
 10 11  1  0
 11 12  2  0
 11 13  1  0
  1 14  1  0
  1 15  1  0
  4 16  1  0
  4 17  1  0
  5 18  1  0
  8 19  1  0
 10 20  1  0
 10 21  1  0
 13 22  1  0
M  END
$$$$

     RDKit          3D

 22 21  0  0  0  0  0  0  0  0999 V2000
    4.5730   -0.4441   -0.9853 N   0  0  0  0  0  0  0  0  0  0  0  0
    3.2414   -0.5215   -0.6133 C   0  0  0  0  0  0  0  0  0  0  0  0
    2.4049   -1.2213   -1.3425 O   0  0  0  0  0  0  0  0  0  0  0  0
    2.7502    0.1816    0.5680 C   0  0  0  0  0  0  0  0  0  0  0  0
    1.3220    0.1272    0.7663 N   0  0  0  0  0  0  0  0  0  0  0  0
    0.3583    0.5199   -0.2729 C   0  0  0  0  0  0  0  0  0  0  0  0
    0.7195    0.8989   -1.3830 O   0  0  0  0  0  0  0  0  0  0  0  0
   -0.9658    0.3811    0.1044 N   0  0  0  0  0  0  0  0  0  0  0  0
   -2.0770    0.4360   -0.6512 O   0  0  0  0  0  0  0  0  0  0  0  0
   -3.1844    0.8532    0.1304 C   0  0  0  0  0  0  0  0  0  0  0  0
   -4.1702   -0.2093    0.2225 C   0  0  0  0  0  0  0  0  0  0  0  0
   -4.0213   -1.0377    1.2645 O   0  0  0  0  0  0  0  0  0  0  0  0
   -5.2343   -0.5098   -0.5589 O   0  0  0  0  0  0  0  0  0  0  0  0
    5.1779   -1.3134   -0.9643 H   0  0  0  0  0  0  0  0  0  0  0  0
    5.0457    0.4208   -1.2715 H   0  0  0  0  0  0  0  0  0  0  0  0
    3.1704   -0.4370    1.4910 H   0  0  0  0  0  0  0  0  0  0  0  0
    3.2094    1.2108    0.7510 H   0  0  0  0  0  0  0  0  0  0  0  0
    0.9503   -0.2215    1.7041 H   0  0  0  0  0  0  0  0  0  0  0  0
   -1.1953    0.2684    1.1489 H   0  0  0  0  0  0  0  0  0  0  0  0
   -3.6769    1.6991   -0.5239 H   0  0  0  0  0  0  0  0  0  0  0  0
   -2.9545    1.3256    1.0644 H   0  0  0  0  0  0  0  0  0  0  0  0
   -5.4433   -1.5341   -0.6487 H   0  0  0  0  0  0  0  0  0  0  0  0
  1  2  1  0
  2  3  2  0
  2  4  1  0
  4  5  1  0
  5  6  1  0
  6  7  2  0
  6  8  1  0
  8  9  1  0
  9 10  1  0
 10 11  1  0
 11 12  2  0
 11 13  1  0
  1 14  1  0
  1 15  1  0
  4 16  1  0
  4 17  1  0
  5 18  1  0
  8 19  1  0
 10 20  1  0
 10 21  1  0
 13 22  1  0
M  END
$$$$

     RDKit          3D

 22 21  0  0  0  0  0  0  0  0999 V2000
   -4.8989    0.0483   -1.4106 N   0  0  0  0  0  0  0  0  0  0  0  0
   -3.7948   -0.4372   -0.6735 C   0  0  0  0  0  0  0  0  0  0  0  0
   -3.9844   -1.3560    0.1516 O   0  0  0  0  0  0  0  0  0  0  0  0
   -2.4786    0.1302   -0.8802 C   0  0  0  0  0  0  0  0  0  0  0  0
   -1.4391   -0.4695   -0.0378 N   0  0  0  0  0  0  0  0  0  0  0  0
   -0.1076   -0.0125   -0.1582 C   0  0  0  0  0  0  0  0  0  0  0  0
    0.1212    0.9020   -1.0111 O   0  0  0  0  0  0  0  0  0  0  0  0
    0.9814   -0.5011    0.6031 N   0  0  0  0  0  0  0  0  0  0  0  0
    2.1900    0.0243    0.3852 O   0  0  0  0  0  0  0  0  0  0  0  0
    3.1592   -0.2994    1.2925 C   0  0  0  0  0  0  0  0  0  0  0  0
    4.4698    0.3343    0.9629 C   0  0  0  0  0  0  0  0  0  0  0  0
    5.4349    0.0875    1.7131 O   0  0  0  0  0  0  0  0  0  0  0  0
    4.6634    1.1691   -0.1211 O   0  0  0  0  0  0  0  0  0  0  0  0
   -5.1280    1.0610   -1.2819 H   0  0  0  0  0  0  0  0  0  0  0  0
   -5.4925   -0.5056   -2.0614 H   0  0  0  0  0  0  0  0  0  0  0  0
   -2.0932    0.1324   -1.9151 H   0  0  0  0  0  0  0  0  0  0  0  0
   -2.4398    1.2311   -0.5768 H   0  0  0  0  0  0  0  0  0  0  0  0
   -1.6245   -1.2182    0.6584 H   0  0  0  0  0  0  0  0  0  0  0  0
    0.7584   -1.2586    1.3012 H   0  0  0  0  0  0  0  0  0  0  0  0
    2.8527    0.1467    2.2854 H   0  0  0  0  0  0  0  0  0  0  0  0
    3.3390   -1.3683    1.4680 H   0  0  0  0  0  0  0  0  0  0  0  0
    5.5115    1.0593   -0.6938 H   0  0  0  0  0  0  0  0  0  0  0  0
  1  2  1  0
  2  3  2  0
  2  4  1  0
  4  5  1  0
  5  6  1  0
  6  7  2  0
  6  8  1  0
  8  9  1  0
  9 10  1  0
 10 11  1  0
 11 12  2  0
 11 13  1  0
  1 14  1  0
  1 15  1  0
  4 16  1  0
  4 17  1  0
  5 18  1  0
  8 19  1  0
 10 20  1  0
 10 21  1  0
 13 22  1  0
M  END
$$$$

     RDKit          3D

 22 21  0  0  0  0  0  0  0  0999 V2000
    4.4814    1.2975   -0.1322 N   0  0  0  0  0  0  0  0  0  0  0  0
    3.1660    0.8596   -0.4423 C   0  0  0  0  0  0  0  0  0  0  0  0
    2.2705    1.7156   -0.6460 O   0  0  0  0  0  0  0  0  0  0  0  0
    2.8881   -0.5882   -0.5165 C   0  0  0  0  0  0  0  0  0  0  0  0
    1.5160   -0.8754   -0.8384 N   0  0  0  0  0  0  0  0  0  0  0  0
    0.4120   -0.4536   -0.0290 C   0  0  0  0  0  0  0  0  0  0  0  0
    0.6563    0.2019    1.0175 O   0  0  0  0  0  0  0  0  0  0  0  0
   -0.9430   -0.7696   -0.4006 N   0  0  0  0  0  0  0  0  0  0  0  0
   -1.9663   -0.3592    0.3815 O   0  0  0  0  0  0  0  0  0  0  0  0
   -3.0885   -0.2492   -0.4312 C   0  0  0  0  0  0  0  0  0  0  0  0
   -4.2351    0.1969    0.3747 C   0  0  0  0  0  0  0  0  0  0  0  0
   -4.0887    0.4130    1.5908 O   0  0  0  0  0  0  0  0  0  0  0  0
   -5.4614    0.3710   -0.2275 O   0  0  0  0  0  0  0  0  0  0  0  0
    5.1172    0.6601    0.3958 H   0  0  0  0  0  0  0  0  0  0  0  0
    4.8198    2.2348   -0.4207 H   0  0  0  0  0  0  0  0  0  0  0  0
    3.2047   -1.0977    0.4401 H   0  0  0  0  0  0  0  0  0  0  0  0
    3.5112   -1.0628   -1.3058 H   0  0  0  0  0  0  0  0  0  0  0  0
    1.2278   -1.4234   -1.7039 H   0  0  0  0  0  0  0  0  0  0  0  0
   -1.1395   -1.3129   -1.2693 H   0  0  0  0  0  0  0  0  0  0  0  0
   -3.2936   -1.2414   -0.9317 H   0  0  0  0  0  0  0  0  0  0  0  0
   -2.8694    0.4968   -1.2414 H   0  0  0  0  0  0  0  0  0  0  0  0
   -6.1856    0.9861    0.1758 H   0  0  0  0  0  0  0  0  0  0  0  0
  1  2  1  0
  2  3  2  0
  2  4  1  0
  4  5  1  0
  5  6  1  0
  6  7  2  0
  6  8  1  0
  8  9  1  0
  9 10  1  0
 10 11  1  0
 11 12  2  0
 11 13  1  0
  1 14  1  0
  1 15  1  0
  4 16  1  0
  4 17  1  0
  5 18  1  0
  8 19  1  0
 10 20  1  0
 10 21  1  0
 13 22  1  0
M  END
$$$$

     RDKit          3D

 22 21  0  0  0  0  0  0  0  0999 V2000
    4.4542    0.6931    0.8725 N   0  0  0  0  0  0  0  0  0  0  0  0
    3.1682    0.1119    0.7079 C   0  0  0  0  0  0  0  0  0  0  0  0
    2.3435    0.0372    1.6472 O   0  0  0  0  0  0  0  0  0  0  0  0
    2.8340   -0.4148   -0.6431 C   0  0  0  0  0  0  0  0  0  0  0  0
    1.5015   -0.9619   -0.5951 N   0  0  0  0  0  0  0  0  0  0  0  0
    0.3853   -0.1355   -0.2471 C   0  0  0  0  0  0  0  0  0  0  0  0
    0.5271    1.0855    0.0271 O   0  0  0  0  0  0  0  0  0  0  0  0
   -0.9324   -0.6534   -0.1950 N   0  0  0  0  0  0  0  0  0  0  0  0
   -2.0253    0.0743    0.1294 O   0  0  0  0  0  0  0  0  0  0  0  0
   -3.1811   -0.5432   -0.3514 C   0  0  0  0  0  0  0  0  0  0  0  0
   -4.3389    0.2703    0.0266 C   0  0  0  0  0  0  0  0  0  0  0  0
   -5.4947   -0.1423   -0.3405 O   0  0  0  0  0  0  0  0  0  0  0  0
   -4.3147    1.4523    0.7467 O   0  0  0  0  0  0  0  0  0  0  0  0
    4.6281    1.5048    1.4898 H   0  0  0  0  0  0  0  0  0  0  0  0
    5.2475    0.2821    0.3495 H   0  0  0  0  0  0  0  0  0  0  0  0
    3.5823   -1.1514   -0.9954 H   0  0  0  0  0  0  0  0  0  0  0  0
    2.8216    0.4443   -1.3432 H   0  0  0  0  0  0  0  0  0  0  0  0
    1.2805   -1.9653   -0.8074 H   0  0  0  0  0  0  0  0  0  0  0  0
   -1.0525   -1.6816   -0.4287 H   0  0  0  0  0  0  0  0  0  0  0  0
   -3.1913   -1.5793    0.0563 H   0  0  0  0  0  0  0  0  0  0  0  0
   -3.1404   -0.6547   -1.4664 H   0  0  0  0  0  0  0  0  0  0  0  0
   -5.1027    1.6609    1.3603 H   0  0  0  0  0  0  0  0  0  0  0  0
  1  2  1  0
  2  3  2  0
  2  4  1  0
  4  5  1  0
  5  6  1  0
  6  7  2  0
  6  8  1  0
  8  9  1  0
  9 10  1  0
 10 11  1  0
 11 12  2  0
 11 13  1  0
  1 14  1  0
  1 15  1  0
  4 16  1  0
  4 17  1  0
  5 18  1  0
  8 19  1  0
 10 20  1  0
 10 21  1  0
 13 22  1  0
M  END
$$$$

     RDKit          3D

 22 21  0  0  0  0  0  0  0  0999 V2000
   -3.3026    1.2644    0.8919 N   0  0  0  0  0  0  0  0  0  0  0  0
   -3.5153   -0.1508    0.5822 C   0  0  0  0  0  0  0  0  0  0  0  0
   -4.3493   -0.7824    1.2197 O   0  0  0  0  0  0  0  0  0  0  0  0
   -2.7399   -0.7725   -0.5040 C   0  0  0  0  0  0  0  0  0  0  0  0
   -1.5405   -0.1061   -0.9324 N   0  0  0  0  0  0  0  0  0  0  0  0
   -0.2797   -0.7047   -0.5102 C   0  0  0  0  0  0  0  0  0  0  0  0
   -0.3923   -1.8445    0.1846 O   0  0  0  0  0  0  0  0  0  0  0  0
    1.0037   -0.2995   -0.7416 N   0  0  0  0  0  0  0  0  0  0  0  0
    2.2001   -0.5879   -0.5512 O   0  0  0  0  0  0  0  0  0  0  0  0
    2.8525   -0.5485    0.6392 C   0  0  0  0  0  0  0  0  0  0  0  0
    4.0066    0.4499    0.4999 C   0  0  0  0  0  0  0  0  0  0  0  0
    4.7001    0.7844    1.4483 O   0  0  0  0  0  0  0  0  0  0  0  0
    4.2325    0.9705   -0.7703 O   0  0  0  0  0  0  0  0  0  0  0  0
   -3.7681    1.6375    1.7317 H   0  0  0  0  0  0  0  0  0  0  0  0
   -2.7779    1.9304    0.3071 H   0  0  0  0  0  0  0  0  0  0  0  0
   -2.5527   -1.8576   -0.3782 H   0  0  0  0  0  0  0  0  0  0  0  0
   -3.4535   -0.6407   -1.4456 H   0  0  0  0  0  0  0  0  0  0  0  0
   -1.4294    0.7571   -1.5404 H   0  0  0  0  0  0  0  0  0  0  0  0
    0.9615    0.7247   -1.3159 H   0  0  0  0  0  0  0  0  0  0  0  0
    2.3568   -0.5927    1.5677 H   0  0  0  0  0  0  0  0  0  0  0  0
    3.5487   -1.5417    0.6267 H   0  0  0  0  0  0  0  0  0  0  0  0
    4.2388    1.9107   -1.0152 H   0  0  0  0  0  0  0  0  0  0  0  0
  1  2  1  0
  2  3  2  0
  2  4  1  0
  4  5  1  0
  5  6  1  0
  6  7  2  0
  6  8  1  0
  8  9  1  0
  9 10  1  0
 10 11  1  0
 11 12  2  0
 11 13  1  0
  1 14  1  0
  1 15  1  0
  4 16  1  0
  4 17  1  0
  5 18  1  0
  8 19  1  0
 10 20  1  0
 10 21  1  0
 13 22  1  0
M  END
$$$$

     RDKit          3D

 22 21  0  0  0  0  0  0  0  0999 V2000
   -4.2649   -0.8212   -0.6041 N   0  0  0  0  0  0  0  0  0  0  0  0
   -3.7819    0.3405    0.0323 C   0  0  0  0  0  0  0  0  0  0  0  0
   -4.6712    1.1958    0.3623 O   0  0  0  0  0  0  0  0  0  0  0  0
   -2.3745    0.6177    0.3266 C   0  0  0  0  0  0  0  0  0  0  0  0
   -1.4603   -0.4020   -0.0791 N   0  0  0  0  0  0  0  0  0  0  0  0
   -0.0585   -0.1459    0.1986 C   0  0  0  0  0  0  0  0  0  0  0  0
    0.2777    0.9198    0.7600 O   0  0  0  0  0  0  0  0  0  0  0  0
    0.9233   -1.0892   -0.1624 N   0  0  0  0  0  0  0  0  0  0  0  0
    2.2161   -0.8625    0.0807 O   0  0  0  0  0  0  0  0  0  0  0  0
    2.7475    0.1876   -0.6532 C   0  0  0  0  0  0  0  0  0  0  0  0
    4.2097    0.3486   -0.3357 C   0  0  0  0  0  0  0  0  0  0  0  0
    4.7139   -0.4290    0.5091 O   0  0  0  0  0  0  0  0  0  0  0  0
    5.0170    1.3124   -0.9325 O   0  0  0  0  0  0  0  0  0  0  0  0
   -4.8737   -0.7551   -1.4521 H   0  0  0  0  0  0  0  0  0  0  0  0
   -4.0353   -1.7715   -0.2538 H   0  0  0  0  0  0  0  0  0  0  0  0
   -2.2532    0.8311    1.4281 H   0  0  0  0  0  0  0  0  0  0  0  0
   -2.0413    1.5712   -0.1624 H   0  0  0  0  0  0  0  0  0  0  0  0
   -1.7049   -1.3015   -0.5434 H   0  0  0  0  0  0  0  0  0  0  0  0
    0.6283   -1.9779   -0.6203 H   0  0  0  0  0  0  0  0  0  0  0  0
    2.5557    0.1008   -1.7380 H   0  0  0  0  0  0  0  0  0  0  0  0
    2.3172    1.1789   -0.3149 H   0  0  0  0  0  0  0  0  0  0  0  0
    5.9131    0.9515   -1.3050 H   0  0  0  0  0  0  0  0  0  0  0  0
  1  2  1  0
  2  3  2  0
  2  4  1  0
  4  5  1  0
  5  6  1  0
  6  7  2  0
  6  8  1  0
  8  9  1  0
  9 10  1  0
 10 11  1  0
 11 12  2  0
 11 13  1  0
  1 14  1  0
  1 15  1  0
  4 16  1  0
  4 17  1  0
  5 18  1  0
  8 19  1  0
 10 20  1  0
 10 21  1  0
 13 22  1  0
M  END
$$$$
