
     RDKit          3D

 29 28  0  0  0  0  0  0  0  0999 V2000
    4.6178   -0.0953    0.3259 C   0  0  0  0  0  0  0  0  0  0  0  0
    3.1672   -0.1041    0.1516 N   0  0  0  0  0  0  0  0  0  0  0  0
    2.6062    0.2095   -1.1020 C   0  0  0  0  0  0  0  0  0  0  0  0
    3.4243    0.4979   -2.0454 O   0  0  0  0  0  0  0  0  0  0  0  0
    1.1869    0.2491   -1.4592 C   0  0  0  0  0  0  0  0  0  0  0  0
    0.2461   -0.0670   -0.4851 N   0  0  0  0  0  0  0  0  0  0  0  0
    0.1358   -1.3842   -0.0449 C   0  0  0  0  0  0  0  0  0  0  0  0
   -0.9329    0.6833   -0.5455 C   0  0  0  0  0  0  0  0  0  0  0  0
   -2.0235    0.3309    0.4377 C   0  0  2  0  0  0  0  0  0  0  0  0
   -2.4883   -1.0084    0.2893 N   0  0  0  0  0  0  0  0  0  0  0  0
   -3.1576    1.2490    0.1462 C   0  0  0  0  0  0  0  0  0  0  0  0
   -4.4169    0.8189   -0.3530 N   0  0  0  0  0  0  0  0  0  0  0  0
   -3.0440    2.5146    0.3396 O   0  0  0  0  0  0  0  0  0  0  0  0
    5.1057   -0.7282   -0.4605 H   0  0  0  0  0  0  0  0  0  0  0  0
    4.9464   -0.4606    1.2982 H   0  0  0  0  0  0  0  0  0  0  0  0
    4.9694    0.9605    0.1820 H   0  0  0  0  0  0  0  0  0  0  0  0
    2.5148   -0.3277    0.9247 H   0  0  0  0  0  0  0  0  0  0  0  0
    1.0718   -0.5066   -2.3002 H   0  0  0  0  0  0  0  0  0  0  0  0
    0.9529    1.2482   -1.9290 H   0  0  0  0  0  0  0  0  0  0  0  0
   -0.5770   -1.9983   -0.6723 H   0  0  0  0  0  0  0  0  0  0  0  0
   -0.2540   -1.4702    1.0064 H   0  0  0  0  0  0  0  0  0  0  0  0
    1.0935   -1.9566   -0.1141 H   0  0  0  0  0  0  0  0  0  0  0  0
   -0.7178    1.7833   -0.5304 H   0  0  0  0  0  0  0  0  0  0  0  0
   -1.3956    0.5311   -1.5665 H   0  0  0  0  0  0  0  0  0  0  0  0
   -1.6329    0.4936    1.4579 H   0  0  0  0  0  0  0  0  0  0  0  0
   -2.6463   -1.5594    1.1265 H   0  0  0  0  0  0  0  0  0  0  0  0
   -3.0009   -1.2319   -0.5635 H   0  0  0  0  0  0  0  0  0  0  0  0
   -4.8500   -0.0857   -0.0082 H   0  0  0  0  0  0  0  0  0  0  0  0
   -4.9010    1.4143   -1.0668 H   0  0  0  0  0  0  0  0  0  0  0  0
  1  2  1  0
  2  3  1  0
  3  4  2  0
  3  5  1  0
  5  6  1  0
  6  7  1  0
  6  8  1  0
  8  9  1  0
  9 10  1  0
  9 11  1  0
 11 12  1  0
 11 13  2  0
  1 14  1  0
  1 15  1  0
  1 16  1  0
  2 17  1  0
  5 18  1  0
  5 19  1  0
  7 20  1  0
  7 21  1  0
  7 22  1  0
  8 23  1  0
  8 24  1  0
  9 25  1  1
 10 26  1  0
 10 27  1  0
 12 28  1  0
 12 29  1  0
M  END
$$$$

     RDKit          3D

 29 28  0  0  0  0  0  0  0  0999 V2000
    4.4571    0.4283    0.1142 C   0  0  0  0  0  0  0  0  0  0  0  0
    3.4334   -0.4761   -0.3531 N   0  0  0  0  0  0  0  0  0  0  0  0
    2.1234   -0.3393    0.1797 C   0  0  0  0  0  0  0  0  0  0  0  0
    1.8962    0.5604    1.0323 O   0  0  0  0  0  0  0  0  0  0  0  0
    1.0660   -1.2408   -0.2686 C   0  0  0  0  0  0  0  0  0  0  0  0
   -0.2340   -1.0105    0.3179 N   0  0  0  0  0  0  0  0  0  0  0  0
   -1.0716   -2.1230   -0.1694 C   0  0  0  0  0  0  0  0  0  0  0  0
   -0.8212    0.2454   -0.1598 C   0  0  0  0  0  0  0  0  0  0  0  0
   -2.1420    0.4926    0.4923 C   0  0  2  0  0  0  0  0  0  0  0  0
   -3.1484   -0.4696    0.2986 N   0  0  0  0  0  0  0  0  0  0  0  0
   -2.6740    1.8150    0.0321 C   0  0  0  0  0  0  0  0  0  0  0  0
   -1.8724    2.9802    0.0893 N   0  0  0  0  0  0  0  0  0  0  0  0
   -3.8470    1.9457   -0.4201 O   0  0  0  0  0  0  0  0  0  0  0  0
    5.2979    0.5300   -0.6011 H   0  0  0  0  0  0  0  0  0  0  0  0
    3.9682    1.4116    0.3436 H   0  0  0  0  0  0  0  0  0  0  0  0
    4.8310    0.0040    1.0875 H   0  0  0  0  0  0  0  0  0  0  0  0
    3.6543   -1.2241   -1.0766 H   0  0  0  0  0  0  0  0  0  0  0  0
    1.3687   -2.2722    0.0323 H   0  0  0  0  0  0  0  0  0  0  0  0
    0.9746   -1.2571   -1.3912 H   0  0  0  0  0  0  0  0  0  0  0  0
   -1.7196   -1.8277   -0.9968 H   0  0  0  0  0  0  0  0  0  0  0  0
   -0.4477   -2.9674   -0.5462 H   0  0  0  0  0  0  0  0  0  0  0  0
   -1.6000   -2.5129    0.7202 H   0  0  0  0  0  0  0  0  0  0  0  0
   -0.1340    1.0563    0.1369 H   0  0  0  0  0  0  0  0  0  0  0  0
   -0.8917    0.1878   -1.2752 H   0  0  0  0  0  0  0  0  0  0  0  0
   -1.9486    0.5821    1.5897 H   0  0  0  0  0  0  0  0  0  0  0  0
   -3.5692   -0.8943    1.1339 H   0  0  0  0  0  0  0  0  0  0  0  0
   -3.7663   -0.3683   -0.5168 H   0  0  0  0  0  0  0  0  0  0  0  0
   -1.2838    3.1850   -0.7687 H   0  0  0  0  0  0  0  0  0  0  0  0
   -1.8995    3.5591    0.9432 H   0  0  0  0  0  0  0  0  0  0  0  0
  1  2  1  0
  2  3  1  0
  3  4  2  0
  3  5  1  0
  5  6  1  0
  6  7  1  0
  6  8  1  0
  8  9  1  0
  9 10  1  0
  9 11  1  0
 11 12  1  0
 11 13  2  0
  1 14  1  0
  1 15  1  0
  1 16  1  0
  2 17  1  0
  5 18  1  0
  5 19  1  0
  7 20  1  0
  7 21  1  0
  7 22  1  0
  8 23  1  0
  8 24  1  0
  9 25  1  1
 10 26  1  0
 10 27  1  0
 12 28  1  0
 12 29  1  0
M  END
$$$$

     RDKit          3D

 29 28  0  0  0  0  0  0  0  0999 V2000
    4.2386    1.4097    0.3858 C   0  0  0  0  0  0  0  0  0  0  0  0
    3.4774    0.1673    0.4873 N   0  0  0  0  0  0  0  0  0  0  0  0
    2.1154    0.1905    0.0839 C   0  0  0  0  0  0  0  0  0  0  0  0
    1.6345    1.3013   -0.3427 O   0  0  0  0  0  0  0  0  0  0  0  0
    1.3363   -1.0349    0.1786 C   0  0  0  0  0  0  0  0  0  0  0  0
   -0.0197   -1.0364   -0.1716 N   0  0  0  0  0  0  0  0  0  0  0  0
   -0.6002   -2.3030   -0.2158 C   0  0  0  0  0  0  0  0  0  0  0  0
   -0.6577    0.1394   -0.4475 C   0  0  0  0  0  0  0  0  0  0  0  0
   -2.1682    0.1294   -0.6213 C   0  0  2  0  0  0  0  0  0  0  0  0
   -2.4856    1.5479   -0.9299 N   0  0  0  0  0  0  0  0  0  0  0  0
   -2.8751   -0.1617    0.6318 C   0  0  0  0  0  0  0  0  0  0  0  0
   -3.6137    0.8639    1.2810 N   0  0  0  0  0  0  0  0  0  0  0  0
   -2.8850   -1.2749    1.2049 O   0  0  0  0  0  0  0  0  0  0  0  0
    3.5870    2.2533    0.1355 H   0  0  0  0  0  0  0  0  0  0  0  0
    4.9361    1.2940   -0.4811 H   0  0  0  0  0  0  0  0  0  0  0  0
    4.8093    1.6062    1.3061 H   0  0  0  0  0  0  0  0  0  0  0  0
    3.9443   -0.7055    0.8600 H   0  0  0  0  0  0  0  0  0  0  0  0
    1.4311   -1.4761    1.2456 H   0  0  0  0  0  0  0  0  0  0  0  0
    1.9072   -1.8258   -0.4196 H   0  0  0  0  0  0  0  0  0  0  0  0
   -0.6117   -2.7305    0.8189 H   0  0  0  0  0  0  0  0  0  0  0  0
    0.0981   -3.0367   -0.7601 H   0  0  0  0  0  0  0  0  0  0  0  0
   -1.5363   -2.4380   -0.7393 H   0  0  0  0  0  0  0  0  0  0  0  0
   -0.2552    0.6368   -1.3598 H   0  0  0  0  0  0  0  0  0  0  0  0
   -0.5018    0.8693    0.4136 H   0  0  0  0  0  0  0  0  0  0  0  0
   -2.5321   -0.4513   -1.4557 H   0  0  0  0  0  0  0  0  0  0  0  0
   -1.6908    2.0050   -1.4302 H   0  0  0  0  0  0  0  0  0  0  0  0
   -3.3138    1.5934   -1.5625 H   0  0  0  0  0  0  0  0  0  0  0  0
   -4.5190    0.6477    1.7342 H   0  0  0  0  0  0  0  0  0  0  0  0
   -3.2495    1.8197    1.2955 H   0  0  0  0  0  0  0  0  0  0  0  0
  1  2  1  0
  2  3  1  0
  3  4  2  0
  3  5  1  0
  5  6  1  0
  6  7  1  0
  6  8  1  0
  8  9  1  0
  9 10  1  0
  9 11  1  0
 11 12  1  0
 11 13  2  0
  1 14  1  0
  1 15  1  0
  1 16  1  0
  2 17  1  0
  5 18  1  0
  5 19  1  0
  7 20  1  0
  7 21  1  0
  7 22  1  0
  8 23  1  0
  8 24  1  0
  9 25  1  6
 10 26  1  0
 10 27  1  0
 12 28  1  0
 12 29  1  0
M  END
$$$$

     RDKit          3D

 29 28  0  0  0  0  0  0  0  0999 V2000
    4.5960    0.2533    0.8756 C   0  0  0  0  0  0  0  0  0  0  0  0
    3.3562   -0.4835    0.9414 N   0  0  0  0  0  0  0  0  0  0  0  0
    2.2781   -0.0754    0.1314 C   0  0  0  0  0  0  0  0  0  0  0  0
    2.4209    0.9081   -0.6209 O   0  0  0  0  0  0  0  0  0  0  0  0
    0.9808   -0.7951    0.1594 C   0  0  0  0  0  0  0  0  0  0  0  0
    0.0752   -0.2032   -0.7209 N   0  0  0  0  0  0  0  0  0  0  0  0
    0.3436   -0.3148   -2.1071 C   0  0  0  0  0  0  0  0  0  0  0  0
   -0.9468    0.6152   -0.2821 C   0  0  0  0  0  0  0  0  0  0  0  0
   -2.0670    0.0206    0.5067 C   0  0  2  0  0  0  0  0  0  0  0  0
   -2.7364   -0.9950   -0.2831 N   0  0  0  0  0  0  0  0  0  0  0  0
   -3.0556    1.0547    0.8654 C   0  0  0  0  0  0  0  0  0  0  0  0
   -4.3976    0.9360    0.4544 N   0  0  0  0  0  0  0  0  0  0  0  0
   -2.7497    2.0839    1.5518 O   0  0  0  0  0  0  0  0  0  0  0  0
    5.3871   -0.2734    1.4343 H   0  0  0  0  0  0  0  0  0  0  0  0
    4.9096    0.4133   -0.1840 H   0  0  0  0  0  0  0  0  0  0  0  0
    4.4069    1.2314    1.3800 H   0  0  0  0  0  0  0  0  0  0  0  0
    3.2831   -1.2907    1.5762 H   0  0  0  0  0  0  0  0  0  0  0  0
    1.2175   -1.8330   -0.2295 H   0  0  0  0  0  0  0  0  0  0  0  0
    0.6228   -0.9922    1.1818 H   0  0  0  0  0  0  0  0  0  0  0  0
    0.8791    0.5872   -2.4545 H   0  0  0  0  0  0  0  0  0  0  0  0
    1.0123   -1.1901   -2.2715 H   0  0  0  0  0  0  0  0  0  0  0  0
   -0.5900   -0.4080   -2.6822 H   0  0  0  0  0  0  0  0  0  0  0  0
   -0.5311    1.4550    0.3429 H   0  0  0  0  0  0  0  0  0  0  0  0
   -1.4161    1.1365   -1.1653 H   0  0  0  0  0  0  0  0  0  0  0  0
   -1.7586   -0.4642    1.4433 H   0  0  0  0  0  0  0  0  0  0  0  0
   -2.0693   -1.7373   -0.6021 H   0  0  0  0  0  0  0  0  0  0  0  0
   -3.5786   -1.4040    0.1724 H   0  0  0  0  0  0  0  0  0  0  0  0
   -4.9294    0.0435    0.5567 H   0  0  0  0  0  0  0  0  0  0  0  0
   -4.9428    1.7212    0.0295 H   0  0  0  0  0  0  0  0  0  0  0  0
  1  2  1  0
  2  3  1  0
  3  4  2  0
  3  5  1  0
  5  6  1  0
  6  7  1  0
  6  8  1  0
  8  9  1  0
  9 10  1  0
  9 11  1  0
 11 12  1  0
 11 13  2  0
  1 14  1  0
  1 15  1  0
  1 16  1  0
  2 17  1  0
  5 18  1  0
  5 19  1  0
  7 20  1  0
  7 21  1  0
  7 22  1  0
  8 23  1  0
  8 24  1  0
  9 25  1  1
 10 26  1  0
 10 27  1  0
 12 28  1  0
 12 29  1  0
M  END
$$$$

     RDKit          3D

 29 28  0  0  0  0  0  0  0  0999 V2000
    4.3749   -1.1319    0.9717 C   0  0  0  0  0  0  0  0  0  0  0  0
    3.5215   -0.0746    0.4502 N   0  0  0  0  0  0  0  0  0  0  0  0
    2.0845   -0.2001    0.5245 C   0  0  0  0  0  0  0  0  0  0  0  0
    1.6196   -1.2231    1.0407 O   0  0  0  0  0  0  0  0  0  0  0  0
    1.2451    0.8652   -0.0021 C   0  0  0  0  0  0  0  0  0  0  0  0
   -0.1823    0.6534    0.0979 N   0  0  0  0  0  0  0  0  0  0  0  0
   -0.7625    1.9195   -0.3596 C   0  0  0  0  0  0  0  0  0  0  0  0
   -0.5208   -0.4216   -0.7951 C   0  0  0  0  0  0  0  0  0  0  0  0
   -1.9856   -0.7687   -0.8081 C   0  0  2  0  0  0  0  0  0  0  0  0
   -2.8109    0.3350   -1.2089 N   0  0  0  0  0  0  0  0  0  0  0  0
   -2.4306   -1.3610    0.4814 C   0  0  0  0  0  0  0  0  0  0  0  0
   -3.5396   -0.8392    1.1942 N   0  0  0  0  0  0  0  0  0  0  0  0
   -1.8479   -2.3506    1.0067 O   0  0  0  0  0  0  0  0  0  0  0  0
    4.9908   -0.7459    1.8359 H   0  0  0  0  0  0  0  0  0  0  0  0
    3.7585   -1.9728    1.3091 H   0  0  0  0  0  0  0  0  0  0  0  0
    5.0902   -1.4202    0.1967 H   0  0  0  0  0  0  0  0  0  0  0  0
    3.8852    0.7914    0.0137 H   0  0  0  0  0  0  0  0  0  0  0  0
    1.5196    0.9909   -1.0927 H   0  0  0  0  0  0  0  0  0  0  0  0
    1.5498    1.8346    0.4686 H   0  0  0  0  0  0  0  0  0  0  0  0
   -1.7764    2.0702    0.0273 H   0  0  0  0  0  0  0  0  0  0  0  0
   -0.1476    2.7169    0.1166 H   0  0  0  0  0  0  0  0  0  0  0  0
   -0.6626    2.0640   -1.4535 H   0  0  0  0  0  0  0  0  0  0  0  0
   -0.2380   -0.1148   -1.8199 H   0  0  0  0  0  0  0  0  0  0  0  0
    0.0230   -1.3163   -0.5361 H   0  0  0  0  0  0  0  0  0  0  0  0
   -2.1032   -1.5638   -1.5795 H   0  0  0  0  0  0  0  0  0  0  0  0
   -3.7719    0.3246   -0.8067 H   0  0  0  0  0  0  0  0  0  0  0  0
   -2.9544    0.3660   -2.2633 H   0  0  0  0  0  0  0  0  0  0  0  0
   -3.4309   -0.5525    2.2005 H   0  0  0  0  0  0  0  0  0  0  0  0
   -4.4976   -0.7083    0.7899 H   0  0  0  0  0  0  0  0  0  0  0  0
  1  2  1  0
  2  3  1  0
  3  4  2  0
  3  5  1  0
  5  6  1  0
  6  7  1  0
  6  8  1  0
  8  9  1  0
  9 10  1  0
  9 11  1  0
 11 12  1  0
 11 13  2  0
  1 14  1  0
  1 15  1  0
  1 16  1  0
  2 17  1  0
  5 18  1  0
  5 19  1  0
  7 20  1  0
  7 21  1  0
  7 22  1  0
  8 23  1  0
  8 24  1  0
  9 25  1  6
 10 26  1  0
 10 27  1  0
 12 28  1  0
 12 29  1  0
M  END
$$$$

     RDKit          3D

 29 28  0  0  0  0  0  0  0  0999 V2000
   -4.4482    1.0514   -0.1833 C   0  0  0  0  0  0  0  0  0  0  0  0
   -3.5175    0.1329    0.4284 N   0  0  0  0  0  0  0  0  0  0  0  0
   -2.2595   -0.0959   -0.1867 C   0  0  0  0  0  0  0  0  0  0  0  0
   -2.0021    0.5176   -1.2467 O   0  0  0  0  0  0  0  0  0  0  0  0
   -1.3048   -1.0294    0.4219 C   0  0  0  0  0  0  0  0  0  0  0  0
   -0.0525   -1.1077   -0.3729 N   0  0  0  0  0  0  0  0  0  0  0  0
    0.6553   -2.2374    0.2833 C   0  0  0  0  0  0  0  0  0  0  0  0
    0.6592    0.1282   -0.0510 C   0  0  0  0  0  0  0  0  0  0  0  0
    1.8626    0.3891   -0.8809 C   0  0  2  0  0  0  0  0  0  0  0  0
    2.8595   -0.6192   -0.8002 N   0  0  0  0  0  0  0  0  0  0  0  0
    2.4718    1.6809   -0.3937 C   0  0  0  0  0  0  0  0  0  0  0  0
    3.8305    1.6809   -0.0109 N   0  0  0  0  0  0  0  0  0  0  0  0
    1.8146    2.7340   -0.3199 O   0  0  0  0  0  0  0  0  0  0  0  0
   -3.9542    1.5946   -0.9931 H   0  0  0  0  0  0  0  0  0  0  0  0
   -4.8397    1.7615    0.5996 H   0  0  0  0  0  0  0  0  0  0  0  0
   -5.3663    0.5556   -0.5866 H   0  0  0  0  0  0  0  0  0  0  0  0
   -3.8008   -0.3488    1.3324 H   0  0  0  0  0  0  0  0  0  0  0  0
   -1.7438   -2.0597    0.5296 H   0  0  0  0  0  0  0  0  0  0  0  0
   -1.0158   -0.6958    1.4475 H   0  0  0  0  0  0  0  0  0  0  0  0
   -0.1464   -3.0003    0.5349 H   0  0  0  0  0  0  0  0  0  0  0  0
    1.3179   -2.7455   -0.4093 H   0  0  0  0  0  0  0  0  0  0  0  0
    1.0774   -1.9502    1.2500 H   0  0  0  0  0  0  0  0  0  0  0  0
    0.9529    0.0556    1.0244 H   0  0  0  0  0  0  0  0  0  0  0  0
   -0.0514    0.9663   -0.1540 H   0  0  0  0  0  0  0  0  0  0  0  0
    1.5775    0.6179   -1.9374 H   0  0  0  0  0  0  0  0  0  0  0  0
    2.9559   -1.1321    0.0893 H   0  0  0  0  0  0  0  0  0  0  0  0
    3.8274   -0.1988   -0.9935 H   0  0  0  0  0  0  0  0  0  0  0  0
    4.5186    2.2192   -0.5539 H   0  0  0  0  0  0  0  0  0  0  0  0
    4.1219    1.1352    0.8172 H   0  0  0  0  0  0  0  0  0  0  0  0
  1  2  1  0
  2  3  1  0
  3  4  2  0
  3  5  1  0
  5  6  1  0
  6  7  1  0
  6  8  1  0
  8  9  1  0
  9 10  1  0
  9 11  1  0
 11 12  1  0
 11 13  2  0
  1 14  1  0
  1 15  1  0
  1 16  1  0
  2 17  1  0
  5 18  1  0
  5 19  1  0
  7 20  1  0
  7 21  1  0
  7 22  1  0
  8 23  1  0
  8 24  1  0
  9 25  1  6
 10 26  1  0
 10 27  1  0
 12 28  1  0
 12 29  1  0
M  END
$$$$

     RDKit          3D

 29 28  0  0  0  0  0  0  0  0999 V2000
    4.5287   -0.5309    0.0618 C   0  0  0  0  0  0  0  0  0  0  0  0
    3.0856   -0.3462    0.1315 N   0  0  0  0  0  0  0  0  0  0  0  0
    2.4759    0.7380   -0.5281 C   0  0  0  0  0  0  0  0  0  0  0  0
    3.2373    1.5163   -1.1644 O   0  0  0  0  0  0  0  0  0  0  0  0
    1.0441    1.0426   -0.5432 C   0  0  0  0  0  0  0  0  0  0  0  0
    0.2101    0.1394    0.1873 N   0  0  0  0  0  0  0  0  0  0  0  0
    0.4992    0.3033    1.6067 C   0  0  0  0  0  0  0  0  0  0  0  0
   -1.1713    0.5660   -0.0609 C   0  0  0  0  0  0  0  0  0  0  0  0
   -2.1697   -0.3090    0.6577 C   0  0  2  0  0  0  0  0  0  0  0  0
   -2.1273   -1.6840    0.2923 N   0  0  0  0  0  0  0  0  0  0  0  0
   -3.5233    0.2291    0.4114 C   0  0  0  0  0  0  0  0  0  0  0  0
   -4.5310   -0.6153   -0.1175 N   0  0  0  0  0  0  0  0  0  0  0  0
   -3.8117    1.4254    0.6621 O   0  0  0  0  0  0  0  0  0  0  0  0
    4.8013   -1.3788   -0.6192 H   0  0  0  0  0  0  0  0  0  0  0  0
    4.9895    0.4151   -0.3256 H   0  0  0  0  0  0  0  0  0  0  0  0
    4.9231   -0.7867    1.0651 H   0  0  0  0  0  0  0  0  0  0  0  0
    2.4812   -0.9960    0.6570 H   0  0  0  0  0  0  0  0  0  0  0  0
    0.6989    1.1557   -1.6040 H   0  0  0  0  0  0  0  0  0  0  0  0
    0.9170    2.0523   -0.0595 H   0  0  0  0  0  0  0  0  0  0  0  0
    0.5881   -0.6848    2.1089 H   0  0  0  0  0  0  0  0  0  0  0  0
    1.4393    0.8971    1.7677 H   0  0  0  0  0  0  0  0  0  0  0  0
   -0.3087    0.9023    2.1061 H   0  0  0  0  0  0  0  0  0  0  0  0
   -1.2477    1.6001    0.3310 H   0  0  0  0  0  0  0  0  0  0  0  0
   -1.3242    0.5957   -1.1414 H   0  0  0  0  0  0  0  0  0  0  0  0
   -1.9937   -0.2596    1.7581 H   0  0  0  0  0  0  0  0  0  0  0  0
   -1.2273   -2.1526    0.4232 H   0  0  0  0  0  0  0  0  0  0  0  0
   -2.6396   -1.9309   -0.5791 H   0  0  0  0  0  0  0  0  0  0  0  0
   -4.9418   -1.3886    0.4679 H   0  0  0  0  0  0  0  0  0  0  0  0
   -4.9023   -0.5149   -1.0865 H   0  0  0  0  0  0  0  0  0  0  0  0
  1  2  1  0
  2  3  1  0
  3  4  2  0
  3  5  1  0
  5  6  1  0
  6  7  1  0
  6  8  1  0
  8  9  1  0
  9 10  1  0
  9 11  1  0
 11 12  1  0
 11 13  2  0
  1 14  1  0
  1 15  1  0
  1 16  1  0
  2 17  1  0
  5 18  1  0
  5 19  1  0
  7 20  1  0
  7 21  1  0
  7 22  1  0
  8 23  1  0
  8 24  1  0
  9 25  1  1
 10 26  1  0
 10 27  1  0
 12 28  1  0
 12 29  1  0
M  END
$$$$

     RDKit          3D

 29 28  0  0  0  0  0  0  0  0999 V2000
    3.8685    0.1670    0.6203 C   0  0  0  0  0  0  0  0  0  0  0  0
    2.5050    0.0899    0.1067 N   0  0  0  0  0  0  0  0  0  0  0  0
    2.2726   -0.7854   -0.9695 C   0  0  0  0  0  0  0  0  0  0  0  0
    3.2659   -1.4622   -1.4301 O   0  0  0  0  0  0  0  0  0  0  0  0
    0.9311   -0.9313   -1.5577 C   0  0  0  0  0  0  0  0  0  0  0  0
   -0.0033   -0.0729   -0.9274 N   0  0  0  0  0  0  0  0  0  0  0  0
    0.1189    1.3020   -1.1541 C   0  0  0  0  0  0  0  0  0  0  0  0
   -0.6541   -0.5900    0.1987 C   0  0  0  0  0  0  0  0  0  0  0  0
   -1.6034    0.3233    0.8856 C   0  0  2  0  0  0  0  0  0  0  0  0
   -2.1149   -0.4721    2.0428 N   0  0  0  0  0  0  0  0  0  0  0  0
   -2.8287    0.6572    0.1197 C   0  0  0  0  0  0  0  0  0  0  0  0
   -4.1263    0.1599    0.4565 N   0  0  0  0  0  0  0  0  0  0  0  0
   -2.7949    1.4047   -0.8802 O   0  0  0  0  0  0  0  0  0  0  0  0
    4.3414    1.0189    0.0704 H   0  0  0  0  0  0  0  0  0  0  0  0
    3.8592    0.4395    1.6950 H   0  0  0  0  0  0  0  0  0  0  0  0
    4.4001   -0.7661    0.4219 H   0  0  0  0  0  0  0  0  0  0  0  0
    1.7882    0.6764    0.5694 H   0  0  0  0  0  0  0  0  0  0  0  0
    0.9832   -0.7737   -2.6792 H   0  0  0  0  0  0  0  0  0  0  0  0
    0.5866   -1.9846   -1.4028 H   0  0  0  0  0  0  0  0  0  0  0  0
    1.1934    1.5349   -1.4451 H   0  0  0  0  0  0  0  0  0  0  0  0
   -0.4372    1.6800   -2.0576 H   0  0  0  0  0  0  0  0  0  0  0  0
   -0.0885    1.8896   -0.2582 H   0  0  0  0  0  0  0  0  0  0  0  0
   -1.1729   -1.5742    0.0013 H   0  0  0  0  0  0  0  0  0  0  0  0
    0.1160   -0.8844    0.9692 H   0  0  0  0  0  0  0  0  0  0  0  0
   -1.1267    1.1965    1.3469 H   0  0  0  0  0  0  0  0  0  0  0  0
   -2.7763   -1.1846    1.6402 H   0  0  0  0  0  0  0  0  0  0  0  0
   -1.3090   -1.0339    2.4387 H   0  0  0  0  0  0  0  0  0  0  0  0
   -4.5901   -0.5915   -0.1154 H   0  0  0  0  0  0  0  0  0  0  0  0
   -4.6037    0.5671    1.2940 H   0  0  0  0  0  0  0  0  0  0  0  0
  1  2  1  0
  2  3  1  0
  3  4  2  0
  3  5  1  0
  5  6  1  0
  6  7  1  0
  6  8  1  0
  8  9  1  0
  9 10  1  0
  9 11  1  0
 11 12  1  0
 11 13  2  0
  1 14  1  0
  1 15  1  0
  1 16  1  0
  2 17  1  0
  5 18  1  0
  5 19  1  0
  7 20  1  0
  7 21  1  0
  7 22  1  0
  8 23  1  0
  8 24  1  0
  9 25  1  1
 10 26  1  0
 10 27  1  0
 12 28  1  0
 12 29  1  0
M  END
$$$$
