
     RDKit          3D

 27 26  0  0  0  0  0  0  0  0999 V2000
   -4.0946   -0.5823    0.4494 C   0  0  0  0  0  0  0  0  0  0  0  0
   -3.3863    0.3709   -0.5392 C   0  0  0  0  0  0  0  0  0  0  0  0
   -1.9070   -0.0003   -0.5585 C   0  0  0  0  0  0  0  0  0  0  0  0
   -1.3712   -0.0289    0.7722 C   0  0  2  0  0  0  0  0  0  0  0  0
   -1.3688    1.1551    1.4819 O   0  0  0  0  0  0  0  0  0  0  0  0
   -0.0088   -0.6555    0.8298 C   0  0  0  0  0  0  0  0  0  0  0  0
    0.2701   -1.5119    1.7917 O   0  0  0  0  0  0  0  0  0  0  0  0
    1.0472   -0.3613   -0.0772 N   0  0  0  0  0  0  0  0  0  0  0  0
    2.2291   -0.8047    0.0450 O   0  0  0  0  0  0  0  0  0  0  0  0
    3.2526   -0.2105   -0.6635 C   0  0  0  0  0  0  0  0  0  0  0  0
    4.1930    0.3033    0.3396 C   0  0  0  0  0  0  0  0  0  0  0  0
    5.5302    0.6086    0.2291 N   0  0  0  0  0  0  0  0  0  0  0  0
    3.6334    0.4937    1.5387 O   0  0  0  0  0  0  0  0  0  0  0  0
   -5.1631   -0.5801    0.1868 H   0  0  0  0  0  0  0  0  0  0  0  0
   -4.0142   -0.1496    1.4797 H   0  0  0  0  0  0  0  0  0  0  0  0
   -3.7010   -1.5869    0.4116 H   0  0  0  0  0  0  0  0  0  0  0  0
   -3.8642    0.1010   -1.5532 H   0  0  0  0  0  0  0  0  0  0  0  0
   -3.6086    1.3852   -0.2799 H   0  0  0  0  0  0  0  0  0  0  0  0
   -1.4483    0.9236   -1.0838 H   0  0  0  0  0  0  0  0  0  0  0  0
   -1.7391   -0.8838   -1.1558 H   0  0  0  0  0  0  0  0  0  0  0  0
   -2.0410   -0.7128    1.3991 H   0  0  0  0  0  0  0  0  0  0  0  0
   -2.0758    1.7441    1.1762 H   0  0  0  0  0  0  0  0  0  0  0  0
    0.6959    0.2851   -0.9031 H   0  0  0  0  0  0  0  0  0  0  0  0
    3.7942   -1.1018   -1.1550 H   0  0  0  0  0  0  0  0  0  0  0  0
    3.0083    0.4452   -1.4674 H   0  0  0  0  0  0  0  0  0  0  0  0
    6.2164   -0.1859    0.2470 H   0  0  0  0  0  0  0  0  0  0  0  0
    5.9216    1.5406    0.1098 H   0  0  0  0  0  0  0  0  0  0  0  0
  1  2  1  0
  2  3  1  0
  3  4  1  0
  4  5  1  0
  4  6  1  0
  6  7  2  0
  6  8  1  0
  8  9  1  0
  9 10  1  0
 10 11  1  0
 11 12  1  0
 11 13  2  0
  1 14  1  0
  1 15  1  0
  1 16  1  0
  2 17  1  0
  2 18  1  0
  3 19  1  0
  3 20  1  0
  4 21  1  1
  5 22  1  0
  8 23  1  0
 10 24  1  0
 10 25  1  0
 12 26  1  0
 12 27  1  0
M  END
$$$$

     RDKit          3D

 27 26  0  0  0  0  0  0  0  0999 V2000
   -4.0306    1.0926    0.8156 C   0  0  0  0  0  0  0  0  0  0  0  0
   -3.7711   -0.3586    0.4028 C   0  0  0  0  0  0  0  0  0  0  0  0
   -2.3779   -0.7282    0.8698 C   0  0  0  0  0  0  0  0  0  0  0  0
   -1.4068    0.2174    0.1958 C   0  0  2  0  0  0  0  0  0  0  0  0
   -1.4616    0.1265   -1.1767 O   0  0  0  0  0  0  0  0  0  0  0  0
   -0.0371   -0.0721    0.6812 C   0  0  0  0  0  0  0  0  0  0  0  0
    0.2307   -0.0435    1.9112 O   0  0  0  0  0  0  0  0  0  0  0  0
    0.9990   -0.3841   -0.2282 N   0  0  0  0  0  0  0  0  0  0  0  0
    2.2480   -0.6431    0.2360 O   0  0  0  0  0  0  0  0  0  0  0  0
    3.2058   -0.0390   -0.5567 C   0  0  0  0  0  0  0  0  0  0  0  0
    4.5508   -0.3304   -0.0331 C   0  0  0  0  0  0  0  0  0  0  0  0
    5.7329    0.1611   -0.6432 N   0  0  0  0  0  0  0  0  0  0  0  0
    4.6790   -1.0505    1.0085 O   0  0  0  0  0  0  0  0  0  0  0  0
   -3.6775    1.7968    0.0352 H   0  0  0  0  0  0  0  0  0  0  0  0
   -5.1246    1.2282    0.9380 H   0  0  0  0  0  0  0  0  0  0  0  0
   -3.4791    1.3034    1.7535 H   0  0  0  0  0  0  0  0  0  0  0  0
   -3.7959   -0.4658   -0.6935 H   0  0  0  0  0  0  0  0  0  0  0  0
   -4.5369   -1.0172    0.8548 H   0  0  0  0  0  0  0  0  0  0  0  0
   -2.3325   -0.5334    1.9507 H   0  0  0  0  0  0  0  0  0  0  0  0
   -2.1184   -1.7562    0.5984 H   0  0  0  0  0  0  0  0  0  0  0  0
   -1.6815    1.2765    0.4722 H   0  0  0  0  0  0  0  0  0  0  0  0
   -1.1512   -0.7579   -1.4732 H   0  0  0  0  0  0  0  0  0  0  0  0
    0.8574   -0.4279   -1.2614 H   0  0  0  0  0  0  0  0  0  0  0  0
    3.0767    1.0662   -0.5556 H   0  0  0  0  0  0  0  0  0  0  0  0
    3.0708   -0.3482   -1.6160 H   0  0  0  0  0  0  0  0  0  0  0  0
    6.0613   -0.2071   -1.5593 H   0  0  0  0  0  0  0  0  0  0  0  0
    6.2703    0.8944   -0.1670 H   0  0  0  0  0  0  0  0  0  0  0  0
  1  2  1  0
  2  3  1  0
  3  4  1  0
  4  5  1  0
  4  6  1  0
  6  7  2  0
  6  8  1  0
  8  9  1  0
  9 10  1  0
 10 11  1  0
 11 12  1  0
 11 13  2  0
  1 14  1  0
  1 15  1  0
  1 16  1  0
  2 17  1  0
  2 18  1  0
  3 19  1  0
  3 20  1  0
  4 21  1  6
  5 22  1  0
  8 23  1  0
 10 24  1  0
 10 25  1  0
 12 26  1  0
 12 27  1  0
M  END
$$$$

     RDKit          3D

 27 26  0  0  0  0  0  0  0  0999 V2000
   -3.6833    0.9825   -0.1018 C   0  0  0  0  0  0  0  0  0  0  0  0
   -3.4825   -0.5074   -0.1178 C   0  0  0  0  0  0  0  0  0  0  0  0
   -2.1171   -0.9766   -0.4897 C   0  0  0  0  0  0  0  0  0  0  0  0
   -0.9783   -0.6442    0.3439 C   0  0  2  0  0  0  0  0  0  0  0  0
   -1.1292   -1.0759    1.6659 O   0  0  0  0  0  0  0  0  0  0  0  0
   -0.2826    0.6338    0.3224 C   0  0  0  0  0  0  0  0  0  0  0  0
   -0.7997    1.7777    0.0792 O   0  0  0  0  0  0  0  0  0  0  0  0
    1.0786    0.6292    0.5855 N   0  0  0  0  0  0  0  0  0  0  0  0
    2.0895    1.4642    0.6772 O   0  0  0  0  0  0  0  0  0  0  0  0
    2.9192    1.0607   -0.4550 C   0  0  0  0  0  0  0  0  0  0  0  0
    3.9841    0.2178    0.1077 C   0  0  0  0  0  0  0  0  0  0  0  0
    4.8445   -0.5362   -0.7232 N   0  0  0  0  0  0  0  0  0  0  0  0
    4.1374    0.1545    1.3610 O   0  0  0  0  0  0  0  0  0  0  0  0
   -3.3856    1.4145    0.8371 H   0  0  0  0  0  0  0  0  0  0  0  0
   -3.2402    1.3994   -1.0329 H   0  0  0  0  0  0  0  0  0  0  0  0
   -4.7839    1.2234   -0.2295 H   0  0  0  0  0  0  0  0  0  0  0  0
   -4.2261   -0.9887   -0.7679 H   0  0  0  0  0  0  0  0  0  0  0  0
   -3.7018   -0.8739    0.9487 H   0  0  0  0  0  0  0  0  0  0  0  0
   -1.9738   -0.6549   -1.5734 H   0  0  0  0  0  0  0  0  0  0  0  0
   -2.1704   -2.1097   -0.5984 H   0  0  0  0  0  0  0  0  0  0  0  0
   -0.1418   -1.4047   -0.0755 H   0  0  0  0  0  0  0  0  0  0  0  0
   -0.5117   -1.7845    1.9155 H   0  0  0  0  0  0  0  0  0  0  0  0
    1.4906   -0.4161    0.7838 H   0  0  0  0  0  0  0  0  0  0  0  0
    3.4295    2.0408   -0.7640 H   0  0  0  0  0  0  0  0  0  0  0  0
    2.3284    0.6340   -1.2036 H   0  0  0  0  0  0  0  0  0  0  0  0
    4.5267   -1.4694   -1.0908 H   0  0  0  0  0  0  0  0  0  0  0  0
    5.7797   -0.1905   -0.9742 H   0  0  0  0  0  0  0  0  0  0  0  0
  1  2  1  0
  2  3  1  0
  3  4  1  0
  4  5  1  0
  4  6  1  0
  6  7  2  0
  6  8  1  0
  8  9  1  0
  9 10  1  0
 10 11  1  0
 11 12  1  0
 11 13  2  0
  1 14  1  0
  1 15  1  0
  1 16  1  0
  2 17  1  0
  2 18  1  0
  3 19  1  0
  3 20  1  0
  4 21  1  6
  5 22  1  0
  8 23  1  0
 10 24  1  0
 10 25  1  0
 12 26  1  0
 12 27  1  0
M  END
$$$$

     RDKit          3D

 27 26  0  0  0  0  0  0  0  0999 V2000
   -3.6897   -0.0030   -2.2383 C   0  0  0  0  0  0  0  0  0  0  0  0
   -3.2415    0.0373   -0.7658 C   0  0  0  0  0  0  0  0  0  0  0  0
   -1.7111    0.1882   -0.7432 C   0  0  0  0  0  0  0  0  0  0  0  0
   -1.3328    0.0251    0.6711 C   0  0  2  0  0  0  0  0  0  0  0  0
   -1.7657    0.9084    1.5935 O   0  0  0  0  0  0  0  0  0  0  0  0
    0.1491   -0.3163    0.8282 C   0  0  0  0  0  0  0  0  0  0  0  0
    0.6412   -0.5905    1.9412 O   0  0  0  0  0  0  0  0  0  0  0  0
    1.0059   -0.3117   -0.3123 N   0  0  0  0  0  0  0  0  0  0  0  0
    2.2381   -0.5115   -0.4566 O   0  0  0  0  0  0  0  0  0  0  0  0
    2.9983   -1.1352    0.5472 C   0  0  0  0  0  0  0  0  0  0  0  0
    3.8647   -0.0150    1.0717 C   0  0  0  0  0  0  0  0  0  0  0  0
    5.1219    0.0465    1.6246 N   0  0  0  0  0  0  0  0  0  0  0  0
    3.2571    1.1326    0.9930 O   0  0  0  0  0  0  0  0  0  0  0  0
   -2.8926   -0.6453   -2.7506 H   0  0  0  0  0  0  0  0  0  0  0  0
   -3.7235    1.0161   -2.6271 H   0  0  0  0  0  0  0  0  0  0  0  0
   -4.6708   -0.4642   -2.2354 H   0  0  0  0  0  0  0  0  0  0  0  0
   -3.6820    0.8988   -0.3121 H   0  0  0  0  0  0  0  0  0  0  0  0
   -3.4268   -0.9556   -0.3406 H   0  0  0  0  0  0  0  0  0  0  0  0
   -1.2780   -0.6473   -1.3437 H   0  0  0  0  0  0  0  0  0  0  0  0
   -1.4264    1.1483   -1.1330 H   0  0  0  0  0  0  0  0  0  0  0  0
   -1.7768   -1.0049    1.0416 H   0  0  0  0  0  0  0  0  0  0  0  0
   -2.5065    1.4936    1.2890 H   0  0  0  0  0  0  0  0  0  0  0  0
    0.3925   -0.0937   -1.2686 H   0  0  0  0  0  0  0  0  0  0  0  0
    3.7169   -1.8408    0.0530 H   0  0  0  0  0  0  0  0  0  0  0  0
    2.3915   -1.5998    1.3015 H   0  0  0  0  0  0  0  0  0  0  0  0
    5.4302   -0.1898    2.5997 H   0  0  0  0  0  0  0  0  0  0  0  0
    5.9166    0.3328    0.9719 H   0  0  0  0  0  0  0  0  0  0  0  0
  1  2  1  0
  2  3  1  0
  3  4  1  0
  4  5  1  0
  4  6  1  0
  6  7  2  0
  6  8  1  0
  8  9  1  0
  9 10  1  0
 10 11  1  0
 11 12  1  0
 11 13  2  0
  1 14  1  0
  1 15  1  0
  1 16  1  0
  2 17  1  0
  2 18  1  0
  3 19  1  0
  3 20  1  0
  4 21  1  1
  5 22  1  0
  8 23  1  0
 10 24  1  0
 10 25  1  0
 12 26  1  0
 12 27  1  0
M  END
$$$$

     RDKit          3D

 27 26  0  0  0  0  0  0  0  0999 V2000
   -3.9106   -0.3791    0.7816 C   0  0  0  0  0  0  0  0  0  0  0  0
   -3.4821    0.0759   -0.6014 C   0  0  0  0  0  0  0  0  0  0  0  0
   -1.9774   -0.1654   -0.6829 C   0  0  0  0  0  0  0  0  0  0  0  0
   -1.2752    0.6576    0.3935 C   0  0  2  0  0  0  0  0  0  0  0  0
   -1.5740    1.9865    0.1308 O   0  0  0  0  0  0  0  0  0  0  0  0
    0.1990    0.4441    0.1959 C   0  0  0  0  0  0  0  0  0  0  0  0
    0.8790    1.4205   -0.1626 O   0  0  0  0  0  0  0  0  0  0  0  0
    0.7287   -0.8324    0.4236 N   0  0  0  0  0  0  0  0  0  0  0  0
    2.0138   -1.1208    0.2802 O   0  0  0  0  0  0  0  0  0  0  0  0
    2.8478   -0.1394   -0.1788 C   0  0  0  0  0  0  0  0  0  0  0  0
    4.2393   -0.6897   -0.2534 C   0  0  0  0  0  0  0  0  0  0  0  0
    5.3464   -0.0030   -0.7202 N   0  0  0  0  0  0  0  0  0  0  0  0
    4.3739   -1.9036    0.1621 O   0  0  0  0  0  0  0  0  0  0  0  0
   -3.2002   -1.1726    1.1356 H   0  0  0  0  0  0  0  0  0  0  0  0
   -4.9262   -0.8065    0.6959 H   0  0  0  0  0  0  0  0  0  0  0  0
   -3.8802    0.4513    1.5151 H   0  0  0  0  0  0  0  0  0  0  0  0
   -3.6114    1.1906   -0.7080 H   0  0  0  0  0  0  0  0  0  0  0  0
   -3.9911   -0.4421   -1.4095 H   0  0  0  0  0  0  0  0  0  0  0  0
   -1.7567   -1.2545   -0.5474 H   0  0  0  0  0  0  0  0  0  0  0  0
   -1.5537    0.1376   -1.6570 H   0  0  0  0  0  0  0  0  0  0  0  0
   -1.6011    0.3516    1.4096 H   0  0  0  0  0  0  0  0  0  0  0  0
   -0.9329    2.2777   -0.5710 H   0  0  0  0  0  0  0  0  0  0  0  0
    0.0260   -1.5800    0.7278 H   0  0  0  0  0  0  0  0  0  0  0  0
    2.8846    0.7040    0.5775 H   0  0  0  0  0  0  0  0  0  0  0  0
    2.5946    0.2593   -1.1756 H   0  0  0  0  0  0  0  0  0  0  0  0
    5.3321    0.4271   -1.6762 H   0  0  0  0  0  0  0  0  0  0  0  0
    6.2076    0.1053   -0.1527 H   0  0  0  0  0  0  0  0  0  0  0  0
  1  2  1  0
  2  3  1  0
  3  4  1  0
  4  5  1  0
  4  6  1  0
  6  7  2  0
  6  8  1  0
  8  9  1  0
  9 10  1  0
 10 11  1  0
 11 12  1  0
 11 13  2  0
  1 14  1  0
  1 15  1  0
  1 16  1  0
  2 17  1  0
  2 18  1  0
  3 19  1  0
  3 20  1  0
  4 21  1  1
  5 22  1  0
  8 23  1  0
 10 24  1  0
 10 25  1  0
 12 26  1  0
 12 27  1  0
M  END
$$$$

     RDKit          3D

 27 26  0  0  0  0  0  0  0  0999 V2000
   -3.6488    0.2349   -1.0743 C   0  0  0  0  0  0  0  0  0  0  0  0
   -2.8157   -0.8208   -0.4350 C   0  0  0  0  0  0  0  0  0  0  0  0
   -2.2020   -0.4465    0.8571 C   0  0  0  0  0  0  0  0  0  0  0  0
   -1.2523    0.6865    0.8352 C   0  0  2  0  0  0  0  0  0  0  0  0
   -1.7493    1.9052    0.4138 O   0  0  0  0  0  0  0  0  0  0  0  0
   -0.0560    0.3796   -0.0383 C   0  0  0  0  0  0  0  0  0  0  0  0
    0.2645    1.1774   -0.9755 O   0  0  0  0  0  0  0  0  0  0  0  0
    0.7157   -0.7713    0.1613 N   0  0  0  0  0  0  0  0  0  0  0  0
    1.7835   -1.1009   -0.5666 O   0  0  0  0  0  0  0  0  0  0  0  0
    2.8175   -0.2414   -0.1853 C   0  0  0  0  0  0  0  0  0  0  0  0
    4.0922   -0.4924   -0.8555 C   0  0  0  0  0  0  0  0  0  0  0  0
    5.2131    0.3096   -0.5630 N   0  0  0  0  0  0  0  0  0  0  0  0
    4.2175   -1.4173   -1.6977 O   0  0  0  0  0  0  0  0  0  0  0  0
   -3.7264   -0.0131   -2.1719 H   0  0  0  0  0  0  0  0  0  0  0  0
   -4.6937    0.1709   -0.6831 H   0  0  0  0  0  0  0  0  0  0  0  0
   -3.3273    1.2577   -0.9720 H   0  0  0  0  0  0  0  0  0  0  0  0
   -2.0095   -1.1344   -1.1664 H   0  0  0  0  0  0  0  0  0  0  0  0
   -3.4575   -1.7385   -0.3090 H   0  0  0  0  0  0  0  0  0  0  0  0
   -3.0058   -0.2599    1.6274 H   0  0  0  0  0  0  0  0  0  0  0  0
   -1.6158   -1.3379    1.2582 H   0  0  0  0  0  0  0  0  0  0  0  0
   -0.8782    0.8309    1.8929 H   0  0  0  0  0  0  0  0  0  0  0  0
   -1.7927    2.5629    1.1701 H   0  0  0  0  0  0  0  0  0  0  0  0
    0.4507   -1.4343    0.9331 H   0  0  0  0  0  0  0  0  0  0  0  0
    2.5025    0.7904   -0.4819 H   0  0  0  0  0  0  0  0  0  0  0  0
    2.8998   -0.3065    0.9309 H   0  0  0  0  0  0  0  0  0  0  0  0
    5.6503    0.2383    0.3746 H   0  0  0  0  0  0  0  0  0  0  0  0
    5.6239    0.9705   -1.2458 H   0  0  0  0  0  0  0  0  0  0  0  0
  1  2  1  0
  2  3  1  0
  3  4  1  0
  4  5  1  0
  4  6  1  0
  6  7  2  0
  6  8  1  0
  8  9  1  0
  9 10  1  0
 10 11  1  0
 11 12  1  0
 11 13  2  0
  1 14  1  0
  1 15  1  0
  1 16  1  0
  2 17  1  0
  2 18  1  0
  3 19  1  0
  3 20  1  0
  4 21  1  1
  5 22  1  0
  8 23  1  0
 10 24  1  0
 10 25  1  0
 12 26  1  0
 12 27  1  0
M  END
$$$$

     RDKit          3D

 27 26  0  0  0  0  0  0  0  0999 V2000
   -4.3611   -0.2920   -0.3257 C   0  0  0  0  0  0  0  0  0  0  0  0
   -3.5225    0.2352    0.7912 C   0  0  0  0  0  0  0  0  0  0  0  0
   -2.1767    0.7464    0.4032 C   0  0  0  0  0  0  0  0  0  0  0  0
   -1.3011   -0.2809   -0.2428 C   0  0  2  0  0  0  0  0  0  0  0  0
   -1.0763   -1.3603    0.6067 O   0  0  0  0  0  0  0  0  0  0  0  0
   -0.0044    0.2955   -0.6821 C   0  0  0  0  0  0  0  0  0  0  0  0
    0.0907    1.2754   -1.4448 O   0  0  0  0  0  0  0  0  0  0  0  0
    1.2143   -0.2931   -0.2157 N   0  0  0  0  0  0  0  0  0  0  0  0
    2.4353    0.1603   -0.5639 O   0  0  0  0  0  0  0  0  0  0  0  0
    3.3704   -0.5142    0.2119 C   0  0  0  0  0  0  0  0  0  0  0  0
    4.7466   -0.0792   -0.1034 C   0  0  0  0  0  0  0  0  0  0  0  0
    4.9427    0.9084   -1.1028 N   0  0  0  0  0  0  0  0  0  0  0  0
    5.7440   -0.5603    0.4897 O   0  0  0  0  0  0  0  0  0  0  0  0
   -5.0963    0.4731   -0.7087 H   0  0  0  0  0  0  0  0  0  0  0  0
   -5.0175   -1.0955    0.1228 H   0  0  0  0  0  0  0  0  0  0  0  0
   -3.8188   -0.7836   -1.1389 H   0  0  0  0  0  0  0  0  0  0  0  0
   -3.3650   -0.5060    1.6091 H   0  0  0  0  0  0  0  0  0  0  0  0
   -4.0808    1.0843    1.2590 H   0  0  0  0  0  0  0  0  0  0  0  0
   -1.6667    1.0504    1.3625 H   0  0  0  0  0  0  0  0  0  0  0  0
   -2.2160    1.6784   -0.2112 H   0  0  0  0  0  0  0  0  0  0  0  0
   -1.7889   -0.6845   -1.1701 H   0  0  0  0  0  0  0  0  0  0  0  0
   -0.6964   -0.9819    1.4449 H   0  0  0  0  0  0  0  0  0  0  0  0
    1.1278   -1.1226    0.4313 H   0  0  0  0  0  0  0  0  0  0  0  0
    3.1631   -0.3393    1.2970 H   0  0  0  0  0  0  0  0  0  0  0  0
    3.2704   -1.5928   -0.0392 H   0  0  0  0  0  0  0  0  0  0  0  0
    4.2244    1.1563   -1.8016 H   0  0  0  0  0  0  0  0  0  0  0  0
    5.8588    1.4222   -1.1483 H   0  0  0  0  0  0  0  0  0  0  0  0
  1  2  1  0
  2  3  1  0
  3  4  1  0
  4  5  1  0
  4  6  1  0
  6  7  2  0
  6  8  1  0
  8  9  1  0
  9 10  1  0
 10 11  1  0
 11 12  1  0
 11 13  2  0
  1 14  1  0
  1 15  1  0
  1 16  1  0
  2 17  1  0
  2 18  1  0
  3 19  1  0
  3 20  1  0
  4 21  1  6
  5 22  1  0
  8 23  1  0
 10 24  1  0
 10 25  1  0
 12 26  1  0
 12 27  1  0
M  END
$$$$

     RDKit          3D

 27 26  0  0  0  0  0  0  0  0999 V2000
   -2.9893   -1.6785    0.3401 C   0  0  0  0  0  0  0  0  0  0  0  0
   -2.9026   -0.3262    0.9050 C   0  0  0  0  0  0  0  0  0  0  0  0
   -2.7912    0.8341    0.0134 C   0  0  0  0  0  0  0  0  0  0  0  0
   -1.6519    0.9652   -0.9075 C   0  0  2  0  0  0  0  0  0  0  0  0
   -1.4583   -0.0054   -1.8432 O   0  0  0  0  0  0  0  0  0  0  0  0
   -0.3618    1.3120   -0.2807 C   0  0  0  0  0  0  0  0  0  0  0  0
   -0.2548    2.0990    0.7104 O   0  0  0  0  0  0  0  0  0  0  0  0
    0.8422    0.7412   -0.8052 N   0  0  0  0  0  0  0  0  0  0  0  0
    2.0205    1.0492   -0.2496 O   0  0  0  0  0  0  0  0  0  0  0  0
    2.8669   -0.0463   -0.2219 C   0  0  0  0  0  0  0  0  0  0  0  0
    4.1667    0.3175    0.4155 C   0  0  0  0  0  0  0  0  0  0  0  0
    5.1809   -0.6452    0.5115 N   0  0  0  0  0  0  0  0  0  0  0  0
    4.3191    1.4635    0.8485 O   0  0  0  0  0  0  0  0  0  0  0  0
   -2.1891   -2.3396    0.7860 H   0  0  0  0  0  0  0  0  0  0  0  0
   -3.9327   -2.1908    0.7118 H   0  0  0  0  0  0  0  0  0  0  0  0
   -3.0490   -1.7889   -0.7425 H   0  0  0  0  0  0  0  0  0  0  0  0
   -2.0774   -0.3124    1.6858 H   0  0  0  0  0  0  0  0  0  0  0  0
   -3.8382   -0.1441    1.5376 H   0  0  0  0  0  0  0  0  0  0  0  0
   -3.7536    1.0239   -0.5471 H   0  0  0  0  0  0  0  0  0  0  0  0
   -2.7478    1.7479    0.6968 H   0  0  0  0  0  0  0  0  0  0  0  0
   -1.8654    1.9132   -1.5482 H   0  0  0  0  0  0  0  0  0  0  0  0
   -0.9843   -0.8018   -1.5495 H   0  0  0  0  0  0  0  0  0  0  0  0
    0.8330    0.0944   -1.6136 H   0  0  0  0  0  0  0  0  0  0  0  0
    3.0716   -0.4222   -1.2299 H   0  0  0  0  0  0  0  0  0  0  0  0
    2.4142   -0.8537    0.3991 H   0  0  0  0  0  0  0  0  0  0  0  0
    5.2062   -1.4647   -0.1251 H   0  0  0  0  0  0  0  0  0  0  0  0
    5.9265   -0.5415    1.2266 H   0  0  0  0  0  0  0  0  0  0  0  0
  1  2  1  0
  2  3  1  0
  3  4  1  0
  4  5  1  0
  4  6  1  0
  6  7  2  0
  6  8  1  0
  8  9  1  0
  9 10  1  0
 10 11  1  0
 11 12  1  0
 11 13  2  0
  1 14  1  0
  1 15  1  0
  1 16  1  0
  2 17  1  0
  2 18  1  0
  3 19  1  0
  3 20  1  0
  4 21  1  6
  5 22  1  0
  8 23  1  0
 10 24  1  0
 10 25  1  0
 12 26  1  0
 12 27  1  0
M  END
$$$$
