
     RDKit          3D

 29 28  0  0  0  0  0  0  0  0999 V2000
   -2.0413   -0.6101   -1.2063 C   0  0  0  0  0  0  0  0  0  0  0  0
   -1.2738    0.0941   -0.0822 C   0  0  0  0  0  0  0  0  0  0  0  0
   -1.5093    1.5830   -0.1656 C   0  0  0  0  0  0  0  0  0  0  0  0
   -1.0730    2.1418   -1.3556 O   0  0  0  0  0  0  0  0  0  0  0  0
   -1.8535   -0.3847    1.2303 C   0  0  0  0  0  0  0  0  0  0  0  0
   -3.1861   -0.0202    1.3663 O   0  0  0  0  0  0  0  0  0  0  0  0
    0.0710   -0.2964   -0.1784 N   0  0  0  0  0  0  0  0  0  0  0  0
    0.9455    0.0263    0.8676 C   0  0  0  0  0  0  0  0  0  0  0  0
    2.3429   -0.4959    0.5078 C   0  0  1  0  0  0  0  0  0  0  0  0
    2.3347   -1.9333    0.3163 N   0  0  0  0  0  0  0  0  0  0  0  0
    2.8632    0.1767   -0.7008 C   0  0  0  0  0  0  0  0  0  0  0  0
    3.2333   -0.4359   -1.7172 O   0  0  0  0  0  0  0  0  0  0  0  0
    2.9434    1.5686   -0.7027 O   0  0  0  0  0  0  0  0  0  0  0  0
   -2.4956   -1.5580   -0.8087 H   0  0  0  0  0  0  0  0  0  0  0  0
   -1.3535   -0.9312   -2.0164 H   0  0  0  0  0  0  0  0  0  0  0  0
   -2.8689   -0.0106   -1.5817 H   0  0  0  0  0  0  0  0  0  0  0  0
   -1.0327    2.1098    0.6723 H   0  0  0  0  0  0  0  0  0  0  0  0
   -2.6019    1.7832   -0.0982 H   0  0  0  0  0  0  0  0  0  0  0  0
   -1.2732    1.5926   -2.1487 H   0  0  0  0  0  0  0  0  0  0  0  0
   -1.8019   -1.4816    1.3457 H   0  0  0  0  0  0  0  0  0  0  0  0
   -1.3068    0.0785    2.0910 H   0  0  0  0  0  0  0  0  0  0  0  0
   -3.3842    0.1038    2.3190 H   0  0  0  0  0  0  0  0  0  0  0  0
    0.3647   -0.9320   -0.9074 H   0  0  0  0  0  0  0  0  0  0  0  0
    0.6946   -0.5047    1.8333 H   0  0  0  0  0  0  0  0  0  0  0  0
    1.0743    1.0920    1.1004 H   0  0  0  0  0  0  0  0  0  0  0  0
    3.0446   -0.3077    1.3474 H   0  0  0  0  0  0  0  0  0  0  0  0
    2.1885   -2.1561   -0.7016 H   0  0  0  0  0  0  0  0  0  0  0  0
    3.2652   -2.3568    0.5556 H   0  0  0  0  0  0  0  0  0  0  0  0
    3.6900    2.0647   -1.1816 H   0  0  0  0  0  0  0  0  0  0  0  0
  1  2  1  0
  2  3  1  0
  3  4  1  0
  2  5  1  0
  5  6  1  0
  2  7  1  0
  7  8  1  0
  8  9  1  0
  9 10  1  0
  9 11  1  0
 11 12  2  0
 11 13  1  0
  1 14  1  0
  1 15  1  0
  1 16  1  0
  3 17  1  0
  3 18  1  0
  4 19  1  0
  5 20  1  0
  5 21  1  0
  6 22  1  0
  7 23  1  0
  8 24  1  0
  8 25  1  0
  9 26  1  1
 10 27  1  0
 10 28  1  0
 13 29  1  0
M  END
$$$$

     RDKit          3D

 29 28  0  0  0  0  0  0  0  0999 V2000
   -1.5933   -1.5387    0.0245 C   0  0  0  0  0  0  0  0  0  0  0  0
   -1.2570   -0.0425    0.0162 C   0  0  0  0  0  0  0  0  0  0  0  0
   -1.4960    0.5615    1.3741 C   0  0  0  0  0  0  0  0  0  0  0  0
   -2.8269    0.3894    1.7785 O   0  0  0  0  0  0  0  0  0  0  0  0
   -2.2472    0.6139   -0.9261 C   0  0  0  0  0  0  0  0  0  0  0  0
   -2.1668    0.1238   -2.2062 O   0  0  0  0  0  0  0  0  0  0  0  0
    0.1013    0.1496   -0.4034 N   0  0  0  0  0  0  0  0  0  0  0  0
    1.0106   -0.4651    0.4997 C   0  0  0  0  0  0  0  0  0  0  0  0
    2.4604   -0.3305    0.0660 C   0  0  1  0  0  0  0  0  0  0  0  0
    2.7329   -0.9176   -1.2025 N   0  0  0  0  0  0  0  0  0  0  0  0
    2.9469    1.0678    0.1537 C   0  0  0  0  0  0  0  0  0  0  0  0
    2.7835    1.7339    1.2078 O   0  0  0  0  0  0  0  0  0  0  0  0
    3.5937    1.7075   -0.8927 O   0  0  0  0  0  0  0  0  0  0  0  0
   -1.1717   -2.0510    0.8961 H   0  0  0  0  0  0  0  0  0  0  0  0
   -2.7094   -1.6399   -0.0517 H   0  0  0  0  0  0  0  0  0  0  0  0
   -1.1858   -1.9527   -0.9184 H   0  0  0  0  0  0  0  0  0  0  0  0
   -0.8903    0.0683    2.1885 H   0  0  0  0  0  0  0  0  0  0  0  0
   -1.2743    1.6385    1.4108 H   0  0  0  0  0  0  0  0  0  0  0  0
   -2.9361   -0.2535    2.5079 H   0  0  0  0  0  0  0  0  0  0  0  0
   -2.1180    1.7277   -0.8682 H   0  0  0  0  0  0  0  0  0  0  0  0
   -3.2551    0.3804   -0.5257 H   0  0  0  0  0  0  0  0  0  0  0  0
   -3.0748    0.1505   -2.6002 H   0  0  0  0  0  0  0  0  0  0  0  0
    0.2995    1.1576   -0.5049 H   0  0  0  0  0  0  0  0  0  0  0  0
    0.9621    0.0690    1.4921 H   0  0  0  0  0  0  0  0  0  0  0  0
    0.7895   -1.5186    0.6773 H   0  0  0  0  0  0  0  0  0  0  0  0
    3.0527   -0.9094    0.8337 H   0  0  0  0  0  0  0  0  0  0  0  0
    2.6198   -0.3017   -2.0155 H   0  0  0  0  0  0  0  0  0  0  0  0
    2.4052   -1.8787   -1.2963 H   0  0  0  0  0  0  0  0  0  0  0  0
    4.4445    2.2604   -0.7151 H   0  0  0  0  0  0  0  0  0  0  0  0
  1  2  1  0
  2  3  1  0
  3  4  1  0
  2  5  1  0
  5  6  1  0
  2  7  1  0
  7  8  1  0
  8  9  1  0
  9 10  1  0
  9 11  1  0
 11 12  2  0
 11 13  1  0
  1 14  1  0
  1 15  1  0
  1 16  1  0
  3 17  1  0
  3 18  1  0
  4 19  1  0
  5 20  1  0
  5 21  1  0
  6 22  1  0
  7 23  1  0
  8 24  1  0
  8 25  1  0
  9 26  1  1
 10 27  1  0
 10 28  1  0
 13 29  1  0
M  END
$$$$

     RDKit          3D

 29 28  0  0  0  0  0  0  0  0999 V2000
   -1.6843   -1.2726   -1.1538 C   0  0  0  0  0  0  0  0  0  0  0  0
   -1.3083   -0.1391   -0.2249 C   0  0  0  0  0  0  0  0  0  0  0  0
   -1.9983    1.1173   -0.7802 C   0  0  0  0  0  0  0  0  0  0  0  0
   -1.6324    2.1644    0.0925 O   0  0  0  0  0  0  0  0  0  0  0  0
   -1.9472   -0.3992    1.1117 C   0  0  0  0  0  0  0  0  0  0  0  0
   -1.4530   -1.4948    1.7744 O   0  0  0  0  0  0  0  0  0  0  0  0
    0.0579    0.0924   -0.2303 N   0  0  0  0  0  0  0  0  0  0  0  0
    0.9579   -0.8931    0.2064 C   0  0  0  0  0  0  0  0  0  0  0  0
    2.4225   -0.4398    0.1084 C   0  0  1  0  0  0  0  0  0  0  0  0
    2.7865   -0.1202   -1.2316 N   0  0  0  0  0  0  0  0  0  0  0  0
    2.6318    0.7552    0.9586 C   0  0  0  0  0  0  0  0  0  0  0  0
    2.3936    0.7290    2.2031 O   0  0  0  0  0  0  0  0  0  0  0  0
    3.0970    1.9183    0.3706 O   0  0  0  0  0  0  0  0  0  0  0  0
   -1.4908   -2.2658   -0.6743 H   0  0  0  0  0  0  0  0  0  0  0  0
   -1.0555   -1.2252   -2.0671 H   0  0  0  0  0  0  0  0  0  0  0  0
   -2.7599   -1.1990   -1.4687 H   0  0  0  0  0  0  0  0  0  0  0  0
   -3.0867    0.9878   -0.7917 H   0  0  0  0  0  0  0  0  0  0  0  0
   -1.6223    1.3257   -1.7856 H   0  0  0  0  0  0  0  0  0  0  0  0
   -1.8184    3.0540   -0.2948 H   0  0  0  0  0  0  0  0  0  0  0  0
   -3.0422   -0.5473    0.9816 H   0  0  0  0  0  0  0  0  0  0  0  0
   -1.8556    0.4918    1.7946 H   0  0  0  0  0  0  0  0  0  0  0  0
   -1.6789   -1.4137    2.7381 H   0  0  0  0  0  0  0  0  0  0  0  0
    0.4308    0.9305   -0.6807 H   0  0  0  0  0  0  0  0  0  0  0  0
    0.7976   -1.0608    1.3081 H   0  0  0  0  0  0  0  0  0  0  0  0
    0.8353   -1.8417   -0.3161 H   0  0  0  0  0  0  0  0  0  0  0  0
    3.0618   -1.2525    0.5113 H   0  0  0  0  0  0  0  0  0  0  0  0
    3.7992   -0.2122   -1.3495 H   0  0  0  0  0  0  0  0  0  0  0  0
    2.2148   -0.5838   -1.9669 H   0  0  0  0  0  0  0  0  0  0  0  0
    2.9471    2.7943    0.8569 H   0  0  0  0  0  0  0  0  0  0  0  0
  1  2  1  0
  2  3  1  0
  3  4  1  0
  2  5  1  0
  5  6  1  0
  2  7  1  0
  7  8  1  0
  8  9  1  0
  9 10  1  0
  9 11  1  0
 11 12  2  0
 11 13  1  0
  1 14  1  0
  1 15  1  0
  1 16  1  0
  3 17  1  0
  3 18  1  0
  4 19  1  0
  5 20  1  0
  5 21  1  0
  6 22  1  0
  7 23  1  0
  8 24  1  0
  8 25  1  0
  9 26  1  1
 10 27  1  0
 10 28  1  0
 13 29  1  0
M  END
$$$$

     RDKit          3D

 29 28  0  0  0  0  0  0  0  0999 V2000
   -1.7120    0.4929    1.5863 C   0  0  0  0  0  0  0  0  0  0  0  0
   -1.2528    0.3024    0.1281 C   0  0  0  0  0  0  0  0  0  0  0  0
   -1.5498    1.6697   -0.5079 C   0  0  0  0  0  0  0  0  0  0  0  0
   -1.0440    1.7255   -1.8008 O   0  0  0  0  0  0  0  0  0  0  0  0
   -2.1327   -0.7587   -0.4176 C   0  0  0  0  0  0  0  0  0  0  0  0
   -2.0217   -1.9135    0.3714 O   0  0  0  0  0  0  0  0  0  0  0  0
    0.1504    0.0635    0.1591 N   0  0  0  0  0  0  0  0  0  0  0  0
    0.6601   -0.8256   -0.8569 C   0  0  0  0  0  0  0  0  0  0  0  0
    2.1859   -0.6939   -0.8662 C   0  0  1  0  0  0  0  0  0  0  0  0
    2.5379    0.7124   -1.2017 N   0  0  0  0  0  0  0  0  0  0  0  0
    2.8020   -0.9544    0.4419 C   0  0  0  0  0  0  0  0  0  0  0  0
    2.4836   -1.8874    1.2109 O   0  0  0  0  0  0  0  0  0  0  0  0
    3.8339   -0.0853    0.8725 O   0  0  0  0  0  0  0  0  0  0  0  0
   -0.9335    1.0955    2.0598 H   0  0  0  0  0  0  0  0  0  0  0  0
   -1.7850   -0.4862    2.0673 H   0  0  0  0  0  0  0  0  0  0  0  0
   -2.7004    0.9937    1.5151 H   0  0  0  0  0  0  0  0  0  0  0  0
   -1.1635    2.4165    0.1850 H   0  0  0  0  0  0  0  0  0  0  0  0
   -2.6475    1.7653   -0.5909 H   0  0  0  0  0  0  0  0  0  0  0  0
   -1.4473    2.5200   -2.2213 H   0  0  0  0  0  0  0  0  0  0  0  0
   -1.8914   -1.0876   -1.4556 H   0  0  0  0  0  0  0  0  0  0  0  0
   -3.2007   -0.4127   -0.3378 H   0  0  0  0  0  0  0  0  0  0  0  0
   -2.8744   -2.0852    0.8599 H   0  0  0  0  0  0  0  0  0  0  0  0
    0.3650   -0.4429    1.0822 H   0  0  0  0  0  0  0  0  0  0  0  0
    0.4060   -1.8709   -0.5741 H   0  0  0  0  0  0  0  0  0  0  0  0
    0.3102   -0.6517   -1.8663 H   0  0  0  0  0  0  0  0  0  0  0  0
    2.6671   -1.3036   -1.6492 H   0  0  0  0  0  0  0  0  0  0  0  0
    3.5029    0.8773   -0.8769 H   0  0  0  0  0  0  0  0  0  0  0  0
    1.9231    1.2700   -0.5402 H   0  0  0  0  0  0  0  0  0  0  0  0
    4.5285   -0.4449    1.5461 H   0  0  0  0  0  0  0  0  0  0  0  0
  1  2  1  0
  2  3  1  0
  3  4  1  0
  2  5  1  0
  5  6  1  0
  2  7  1  0
  7  8  1  0
  8  9  1  0
  9 10  1  0
  9 11  1  0
 11 12  2  0
 11 13  1  0
  1 14  1  0
  1 15  1  0
  1 16  1  0
  3 17  1  0
  3 18  1  0
  4 19  1  0
  5 20  1  0
  5 21  1  0
  6 22  1  0
  7 23  1  0
  8 24  1  0
  8 25  1  0
  9 26  1  6
 10 27  1  0
 10 28  1  0
 13 29  1  0
M  END
$$$$

     RDKit          3D

 29 28  0  0  0  0  0  0  0  0999 V2000
   -1.9967   -0.5521   -0.7287 C   0  0  0  0  0  0  0  0  0  0  0  0
   -0.9345    0.4631   -0.2221 C   0  0  0  0  0  0  0  0  0  0  0  0
   -1.3464    1.8097   -0.8074 C   0  0  0  0  0  0  0  0  0  0  0  0
   -2.5425    2.2820   -0.3247 O   0  0  0  0  0  0  0  0  0  0  0  0
   -1.0329    0.4963    1.2424 C   0  0  0  0  0  0  0  0  0  0  0  0
   -2.2360    0.9687    1.7181 O   0  0  0  0  0  0  0  0  0  0  0  0
    0.2789    0.1088   -0.8328 N   0  0  0  0  0  0  0  0  0  0  0  0
    0.9744   -1.0655   -0.6065 C   0  0  0  0  0  0  0  0  0  0  0  0
    1.7031   -1.0991    0.6947 C   0  0  1  0  0  0  0  0  0  0  0  0
    2.3655   -2.4261    0.7837 N   0  0  0  0  0  0  0  0  0  0  0  0
    2.7814   -0.0604    0.6192 C   0  0  0  0  0  0  0  0  0  0  0  0
    3.9777   -0.3853    0.7546 O   0  0  0  0  0  0  0  0  0  0  0  0
    2.4677    1.2612    0.3982 O   0  0  0  0  0  0  0  0  0  0  0  0
   -2.9643   -0.3660   -0.2658 H   0  0  0  0  0  0  0  0  0  0  0  0
   -2.1580   -0.3349   -1.8322 H   0  0  0  0  0  0  0  0  0  0  0  0
   -1.6249   -1.5906   -0.5957 H   0  0  0  0  0  0  0  0  0  0  0  0
   -1.3735    1.8116   -1.9085 H   0  0  0  0  0  0  0  0  0  0  0  0
   -0.5471    2.5697   -0.5080 H   0  0  0  0  0  0  0  0  0  0  0  0
   -3.3265    1.9594   -0.8249 H   0  0  0  0  0  0  0  0  0  0  0  0
   -0.2287    1.0396    1.7648 H   0  0  0  0  0  0  0  0  0  0  0  0
   -1.0271   -0.5921    1.6230 H   0  0  0  0  0  0  0  0  0  0  0  0
   -3.0462    0.7228    1.2707 H   0  0  0  0  0  0  0  0  0  0  0  0
    0.5005    0.6619   -1.6852 H   0  0  0  0  0  0  0  0  0  0  0  0
    1.7956   -1.1333   -1.3954 H   0  0  0  0  0  0  0  0  0  0  0  0
    0.3996   -2.0093   -0.7946 H   0  0  0  0  0  0  0  0  0  0  0  0
    1.1644   -0.9243    1.6079 H   0  0  0  0  0  0  0  0  0  0  0  0
    1.7340   -3.1376    0.3127 H   0  0  0  0  0  0  0  0  0  0  0  0
    3.1821   -2.3439    0.1157 H   0  0  0  0  0  0  0  0  0  0  0  0
    3.0605    1.8656   -0.1953 H   0  0  0  0  0  0  0  0  0  0  0  0
  1  2  1  0
  2  3  1  0
  3  4  1  0
  2  5  1  0
  5  6  1  0
  2  7  1  0
  7  8  1  0
  8  9  1  0
  9 10  1  0
  9 11  1  0
 11 12  2  0
 11 13  1  0
  1 14  1  0
  1 15  1  0
  1 16  1  0
  3 17  1  0
  3 18  1  0
  4 19  1  0
  5 20  1  0
  5 21  1  0
  6 22  1  0
  7 23  1  0
  8 24  1  0
  8 25  1  0
  9 26  1  1
 10 27  1  0
 10 28  1  0
 13 29  1  0
M  END
$$$$

     RDKit          3D

 29 28  0  0  0  0  0  0  0  0999 V2000
   -1.7986   -0.7834    1.1935 C   0  0  0  0  0  0  0  0  0  0  0  0
   -1.2933   -0.0053    0.0024 C   0  0  0  0  0  0  0  0  0  0  0  0
   -1.4396   -1.0069   -1.1700 C   0  0  0  0  0  0  0  0  0  0  0  0
   -2.8137   -1.2362   -1.2558 O   0  0  0  0  0  0  0  0  0  0  0  0
   -2.1142    1.2054   -0.2946 C   0  0  0  0  0  0  0  0  0  0  0  0
   -2.1016    2.1716    0.6738 O   0  0  0  0  0  0  0  0  0  0  0  0
    0.1241    0.3222    0.1884 N   0  0  0  0  0  0  0  0  0  0  0  0
    0.8862   -0.0365   -0.9554 C   0  0  0  0  0  0  0  0  0  0  0  0
    2.3450    0.2273   -0.7665 C   0  0  1  0  0  0  0  0  0  0  0  0
    2.6443    1.5902   -0.4801 N   0  0  0  0  0  0  0  0  0  0  0  0
    3.0344   -0.7126    0.1285 C   0  0  0  0  0  0  0  0  0  0  0  0
    2.5672   -1.8765    0.3776 O   0  0  0  0  0  0  0  0  0  0  0  0
    4.2593   -0.3942    0.7629 O   0  0  0  0  0  0  0  0  0  0  0  0
   -1.3919   -0.4767    2.1574 H   0  0  0  0  0  0  0  0  0  0  0  0
   -2.9129   -0.7764    1.1620 H   0  0  0  0  0  0  0  0  0  0  0  0
   -1.5432   -1.8864    1.1094 H   0  0  0  0  0  0  0  0  0  0  0  0
   -1.0091   -1.9579   -0.7830 H   0  0  0  0  0  0  0  0  0  0  0  0
   -1.0373   -0.6383   -2.0991 H   0  0  0  0  0  0  0  0  0  0  0  0
   -3.0928   -2.0038   -0.6893 H   0  0  0  0  0  0  0  0  0  0  0  0
   -3.1597    0.8619   -0.5339 H   0  0  0  0  0  0  0  0  0  0  0  0
   -1.7395    1.6592   -1.2607 H   0  0  0  0  0  0  0  0  0  0  0  0
   -2.5985    1.9462    1.4921 H   0  0  0  0  0  0  0  0  0  0  0  0
    0.2135    1.3168    0.4887 H   0  0  0  0  0  0  0  0  0  0  0  0
    0.7237   -1.0989   -1.2031 H   0  0  0  0  0  0  0  0  0  0  0  0
    0.5765    0.6300   -1.8096 H   0  0  0  0  0  0  0  0  0  0  0  0
    2.8495    0.0524   -1.8015 H   0  0  0  0  0  0  0  0  0  0  0  0
    1.8689    2.2275   -0.7856 H   0  0  0  0  0  0  0  0  0  0  0  0
    2.9144    1.7609    0.5205 H   0  0  0  0  0  0  0  0  0  0  0  0
    5.0386   -1.0816    0.7457 H   0  0  0  0  0  0  0  0  0  0  0  0
  1  2  1  0
  2  3  1  0
  3  4  1  0
  2  5  1  0
  5  6  1  0
  2  7  1  0
  7  8  1  0
  8  9  1  0
  9 10  1  0
  9 11  1  0
 11 12  2  0
 11 13  1  0
  1 14  1  0
  1 15  1  0
  1 16  1  0
  3 17  1  0
  3 18  1  0
  4 19  1  0
  5 20  1  0
  5 21  1  0
  6 22  1  0
  7 23  1  0
  8 24  1  0
  8 25  1  0
  9 26  1  6
 10 27  1  0
 10 28  1  0
 13 29  1  0
M  END
$$$$

     RDKit          3D

 29 28  0  0  0  0  0  0  0  0999 V2000
   -1.7622   -0.8669    0.9004 C   0  0  0  0  0  0  0  0  0  0  0  0
   -1.3500    0.3143    0.0311 C   0  0  0  0  0  0  0  0  0  0  0  0
   -2.2164    1.5156    0.3429 C   0  0  0  0  0  0  0  0  0  0  0  0
   -1.8444    2.5397   -0.5362 O   0  0  0  0  0  0  0  0  0  0  0  0
   -1.6598   -0.1081   -1.3928 C   0  0  0  0  0  0  0  0  0  0  0  0
   -3.0302   -0.4260   -1.4141 O   0  0  0  0  0  0  0  0  0  0  0  0
    0.0182    0.6761    0.2224 N   0  0  0  0  0  0  0  0  0  0  0  0
    0.9362   -0.3407   -0.1418 C   0  0  0  0  0  0  0  0  0  0  0  0
    2.3750    0.0060    0.0504 C   0  0  1  0  0  0  0  0  0  0  0  0
    2.7890    0.3210    1.3650 N   0  0  0  0  0  0  0  0  0  0  0  0
    3.1874   -1.1238   -0.4672 C   0  0  0  0  0  0  0  0  0  0  0  0
    2.9850   -1.6086   -1.6276 O   0  0  0  0  0  0  0  0  0  0  0  0
    4.2131   -1.7317    0.2580 O   0  0  0  0  0  0  0  0  0  0  0  0
   -1.4873   -1.8125    0.3801 H   0  0  0  0  0  0  0  0  0  0  0  0
   -2.8699   -0.8463    0.9498 H   0  0  0  0  0  0  0  0  0  0  0  0
   -1.2838   -0.8392    1.8960 H   0  0  0  0  0  0  0  0  0  0  0  0
   -3.2854    1.2874    0.2900 H   0  0  0  0  0  0  0  0  0  0  0  0
   -1.9738    1.9233    1.3682 H   0  0  0  0  0  0  0  0  0  0  0  0
   -2.6546    3.1417   -0.5786 H   0  0  0  0  0  0  0  0  0  0  0  0
   -1.1373   -1.0685   -1.5979 H   0  0  0  0  0  0  0  0  0  0  0  0
   -1.5012    0.6675   -2.1411 H   0  0  0  0  0  0  0  0  0  0  0  0
   -3.1939   -1.3647   -1.2123 H   0  0  0  0  0  0  0  0  0  0  0  0
    0.1661    1.1649    1.1045 H   0  0  0  0  0  0  0  0  0  0  0  0
    0.7244   -1.2864    0.3889 H   0  0  0  0  0  0  0  0  0  0  0  0
    0.8008   -0.5622   -1.2304 H   0  0  0  0  0  0  0  0  0  0  0  0
    2.6091    0.9027   -0.5969 H   0  0  0  0  0  0  0  0  0  0  0  0
    2.1349    0.1691    2.1310 H   0  0  0  0  0  0  0  0  0  0  0  0
    3.1900    1.2813    1.4519 H   0  0  0  0  0  0  0  0  0  0  0  0
    5.1212   -1.9250   -0.1937 H   0  0  0  0  0  0  0  0  0  0  0  0
  1  2  1  0
  2  3  1  0
  3  4  1  0
  2  5  1  0
  5  6  1  0
  2  7  1  0
  7  8  1  0
  8  9  1  0
  9 10  1  0
  9 11  1  0
 11 12  2  0
 11 13  1  0
  1 14  1  0
  1 15  1  0
  1 16  1  0
  3 17  1  0
  3 18  1  0
  4 19  1  0
  5 20  1  0
  5 21  1  0
  6 22  1  0
  7 23  1  0
  8 24  1  0
  8 25  1  0
  9 26  1  6
 10 27  1  0
 10 28  1  0
 13 29  1  0
M  END
$$$$

     RDKit          3D

 29 28  0  0  0  0  0  0  0  0999 V2000
   -1.7785    0.2605   -0.9578 C   0  0  0  0  0  0  0  0  0  0  0  0
   -1.1931   -0.4412    0.2443 C   0  0  0  0  0  0  0  0  0  0  0  0
   -1.7178   -1.8137    0.3957 C   0  0  0  0  0  0  0  0  0  0  0  0
   -3.0895   -1.8844    0.5913 O   0  0  0  0  0  0  0  0  0  0  0  0
   -1.4673    0.4505    1.4352 C   0  0  0  0  0  0  0  0  0  0  0  0
   -2.8366    0.5449    1.7053 O   0  0  0  0  0  0  0  0  0  0  0  0
    0.2327   -0.4859    0.0277 N   0  0  0  0  0  0  0  0  0  0  0  0
    0.8487    0.8120    0.0023 C   0  0  0  0  0  0  0  0  0  0  0  0
    2.2739    0.6321   -0.4700 C   0  0  1  0  0  0  0  0  0  0  0  0
    2.9735    1.9143   -0.5065 N   0  0  0  0  0  0  0  0  0  0  0  0
    3.0678   -0.3005    0.3410 C   0  0  0  0  0  0  0  0  0  0  0  0
    4.1028    0.0612    0.9441 O   0  0  0  0  0  0  0  0  0  0  0  0
    2.6583   -1.6365    0.4417 O   0  0  0  0  0  0  0  0  0  0  0  0
   -2.5483   -0.3427   -1.4402 H   0  0  0  0  0  0  0  0  0  0  0  0
   -0.9986    0.4260   -1.7540 H   0  0  0  0  0  0  0  0  0  0  0  0
   -2.1766    1.2651   -0.7324 H   0  0  0  0  0  0  0  0  0  0  0  0
   -1.2316   -2.3139    1.2805 H   0  0  0  0  0  0  0  0  0  0  0  0
   -1.4718   -2.4206   -0.4976 H   0  0  0  0  0  0  0  0  0  0  0  0
   -3.3741   -1.7461    1.5047 H   0  0  0  0  0  0  0  0  0  0  0  0
   -1.1797    1.4912    1.1222 H   0  0  0  0  0  0  0  0  0  0  0  0
   -0.8657    0.1698    2.3013 H   0  0  0  0  0  0  0  0  0  0  0  0
   -3.2853    1.1441    1.0502 H   0  0  0  0  0  0  0  0  0  0  0  0
    0.5607   -1.1657   -0.6529 H   0  0  0  0  0  0  0  0  0  0  0  0
    0.8711    1.2753    1.0247 H   0  0  0  0  0  0  0  0  0  0  0  0
    0.3384    1.4943   -0.6662 H   0  0  0  0  0  0  0  0  0  0  0  0
    2.2926    0.2258   -1.5220 H   0  0  0  0  0  0  0  0  0  0  0  0
    2.3642    2.6757   -0.8287 H   0  0  0  0  0  0  0  0  0  0  0  0
    3.2871    2.0959    0.4851 H   0  0  0  0  0  0  0  0  0  0  0  0
    3.3424   -2.3875    0.5159 H   0  0  0  0  0  0  0  0  0  0  0  0
  1  2  1  0
  2  3  1  0
  3  4  1  0
  2  5  1  0
  5  6  1  0
  2  7  1  0
  7  8  1  0
  8  9  1  0
  9 10  1  0
  9 11  1  0
 11 12  2  0
 11 13  1  0
  1 14  1  0
  1 15  1  0
  1 16  1  0
  3 17  1  0
  3 18  1  0
  4 19  1  0
  5 20  1  0
  5 21  1  0
  6 22  1  0
  7 23  1  0
  8 24  1  0
  8 25  1  0
  9 26  1  6
 10 27  1  0
 10 28  1  0
 13 29  1  0
M  END
$$$$
