
     RDKit          3D

 28 28  0  0  0  0  0  0  0  0999 V2000
    4.0000    1.1112    0.6511 C   0  0  0  0  0  0  0  0  0  0  0  0
    2.6735    0.7732    0.2937 O   0  0  0  0  0  0  0  0  0  0  0  0
    2.2630   -0.4629   -0.1527 C   0  0  0  0  0  0  0  0  0  0  0  0
    3.1113   -1.3773   -0.2565 O   0  0  0  0  0  0  0  0  0  0  0  0
    0.8430   -0.7527   -0.5174 C   0  0  1  0  0  0  0  0  0  0  0  0
    0.3911    0.1590   -1.6174 C   0  0  0  0  0  0  0  0  0  0  0  0
    0.7474   -2.0813   -0.9833 O   0  0  0  0  0  0  0  0  0  0  0  0
   -0.0617   -0.6473    0.6672 C   0  0  0  0  0  0  0  0  0  0  0  0
   -1.4076   -0.9115    0.4298 N   0  0  0  0  0  0  0  0  0  0  0  0
   -2.2331   -0.0357   -0.2899 C   0  0  0  0  0  0  0  0  0  0  0  0
   -2.4858    1.3352    0.2858 C   0  0  0  0  0  0  0  0  0  0  0  0
   -3.2058    0.6845    1.3106 O   0  0  0  0  0  0  0  0  0  0  0  0
   -3.6727   -0.1530    0.2656 C   0  0  0  0  0  0  0  0  0  0  0  0
    4.6665    0.2331    0.6564 H   0  0  0  0  0  0  0  0  0  0  0  0
    4.0500    1.6746    1.6115 H   0  0  0  0  0  0  0  0  0  0  0  0
    4.3669    1.7957   -0.1674 H   0  0  0  0  0  0  0  0  0  0  0  0
   -0.1672    1.0296   -1.2649 H   0  0  0  0  0  0  0  0  0  0  0  0
   -0.1584   -0.4122   -2.3916 H   0  0  0  0  0  0  0  0  0  0  0  0
    1.3272    0.5664   -2.1084 H   0  0  0  0  0  0  0  0  0  0  0  0
    1.6006   -2.5343   -0.8168 H   0  0  0  0  0  0  0  0  0  0  0  0
    0.1662    0.3242    1.1561 H   0  0  0  0  0  0  0  0  0  0  0  0
    0.2978   -1.4070    1.4345 H   0  0  0  0  0  0  0  0  0  0  0  0
   -1.6603   -1.8840    0.2138 H   0  0  0  0  0  0  0  0  0  0  0  0
   -2.2716   -0.1076   -1.4041 H   0  0  0  0  0  0  0  0  0  0  0  0
   -1.6114    1.9155    0.6071 H   0  0  0  0  0  0  0  0  0  0  0  0
   -3.2002    1.8793   -0.3583 H   0  0  0  0  0  0  0  0  0  0  0  0
   -4.4089    0.4447   -0.3271 H   0  0  0  0  0  0  0  0  0  0  0  0
   -3.9597   -1.1595    0.5501 H   0  0  0  0  0  0  0  0  0  0  0  0
  1  2  1  0
  2  3  1  0
  3  4  2  0
  3  5  1  0
  5  6  1  0
  5  7  1  6
  5  8  1  0
  8  9  1  0
  9 10  1  0
 10 11  1  0
 11 12  1  0
 12 13  1  0
 13 10  1  0
  1 14  1  0
  1 15  1  0
  1 16  1  0
  6 17  1  0
  6 18  1  0
  6 19  1  0
  7 20  1  0
  8 21  1  0
  8 22  1  0
  9 23  1  0
 10 24  1  0
 11 25  1  0
 11 26  1  0
 13 27  1  0
 13 28  1  0
M  END
$$$$

     RDKit          3D

 28 28  0  0  0  0  0  0  0  0999 V2000
    2.8194    0.8165    2.2304 C   0  0  0  0  0  0  0  0  0  0  0  0
    2.2782   -0.2306    1.4496 O   0  0  0  0  0  0  0  0  0  0  0  0
    1.7484    0.0991    0.2086 C   0  0  0  0  0  0  0  0  0  0  0  0
    1.7399    1.2819   -0.2264 O   0  0  0  0  0  0  0  0  0  0  0  0
    1.1599   -0.9387   -0.6753 C   0  0  1  0  0  0  0  0  0  0  0  0
    1.9139   -0.9925   -1.9915 C   0  0  0  0  0  0  0  0  0  0  0  0
    1.2561   -2.1601   -0.0409 O   0  0  0  0  0  0  0  0  0  0  0  0
   -0.2550   -0.5321   -0.9746 C   0  0  0  0  0  0  0  0  0  0  0  0
   -1.0842   -0.4094    0.1593 N   0  0  0  0  0  0  0  0  0  0  0  0
   -2.4130   -0.0348   -0.0272 C   0  0  0  0  0  0  0  0  0  0  0  0
   -2.5978    1.3260   -0.6268 C   0  0  0  0  0  0  0  0  0  0  0  0
   -3.6064    1.5751    0.2961 O   0  0  0  0  0  0  0  0  0  0  0  0
   -3.0911    0.6246    1.1495 C   0  0  0  0  0  0  0  0  0  0  0  0
    2.7950    0.5225    3.2900 H   0  0  0  0  0  0  0  0  0  0  0  0
    2.2516    1.7405    2.0793 H   0  0  0  0  0  0  0  0  0  0  0  0
    3.8772    1.0135    1.9457 H   0  0  0  0  0  0  0  0  0  0  0  0
    1.2586   -1.3281   -2.8168 H   0  0  0  0  0  0  0  0  0  0  0  0
    2.7642   -1.6932   -1.8777 H   0  0  0  0  0  0  0  0  0  0  0  0
    2.3137    0.0205   -2.2112 H   0  0  0  0  0  0  0  0  0  0  0  0
    0.4371   -2.6751   -0.0120 H   0  0  0  0  0  0  0  0  0  0  0  0
   -0.6952   -1.2703   -1.6744 H   0  0  0  0  0  0  0  0  0  0  0  0
   -0.2236    0.4362   -1.5151 H   0  0  0  0  0  0  0  0  0  0  0  0
   -0.7293   -0.6436    1.0659 H   0  0  0  0  0  0  0  0  0  0  0  0
   -3.0430   -0.8276   -0.4781 H   0  0  0  0  0  0  0  0  0  0  0  0
   -1.7027    1.9873   -0.4796 H   0  0  0  0  0  0  0  0  0  0  0  0
   -2.9389    1.2649   -1.6907 H   0  0  0  0  0  0  0  0  0  0  0  0
   -2.3523    1.0392    1.8558 H   0  0  0  0  0  0  0  0  0  0  0  0
   -3.8807   -0.0116    1.5879 H   0  0  0  0  0  0  0  0  0  0  0  0
  1  2  1  0
  2  3  1  0
  3  4  2  0
  3  5  1  0
  5  6  1  0
  5  7  1  1
  5  8  1  0
  8  9  1  0
  9 10  1  0
 10 11  1  0
 11 12  1  0
 12 13  1  0
 13 10  1  0
  1 14  1  0
  1 15  1  0
  1 16  1  0
  6 17  1  0
  6 18  1  0
  6 19  1  0
  7 20  1  0
  8 21  1  0
  8 22  1  0
  9 23  1  0
 10 24  1  0
 11 25  1  0
 11 26  1  0
 13 27  1  0
 13 28  1  0
M  END
$$$$

     RDKit          3D

 28 28  0  0  0  0  0  0  0  0999 V2000
   -3.1656    1.8194   -1.1689 C   0  0  0  0  0  0  0  0  0  0  0  0
   -2.5438    0.5451   -1.0927 O   0  0  0  0  0  0  0  0  0  0  0  0
   -1.8129    0.2168    0.0391 C   0  0  0  0  0  0  0  0  0  0  0  0
   -1.6905    1.0389    1.0108 O   0  0  0  0  0  0  0  0  0  0  0  0
   -1.1202   -1.0807    0.2310 C   0  0  1  0  0  0  0  0  0  0  0  0
   -1.7545   -1.7170    1.4721 C   0  0  0  0  0  0  0  0  0  0  0  0
   -1.2794   -1.9575   -0.8116 O   0  0  0  0  0  0  0  0  0  0  0  0
    0.3353   -0.8522    0.6070 C   0  0  0  0  0  0  0  0  0  0  0  0
    1.0995   -0.3156   -0.4797 N   0  0  0  0  0  0  0  0  0  0  0  0
    2.4663   -0.1786   -0.1169 C   0  0  0  0  0  0  0  0  0  0  0  0
    2.7338    0.7945    0.9897 C   0  0  0  0  0  0  0  0  0  0  0  0
    2.6779    1.8295    0.0284 O   0  0  0  0  0  0  0  0  0  0  0  0
    3.1847    0.9145   -0.8906 C   0  0  0  0  0  0  0  0  0  0  0  0
   -3.7874    1.9262   -0.2500 H   0  0  0  0  0  0  0  0  0  0  0  0
   -2.3804    2.6211   -1.2120 H   0  0  0  0  0  0  0  0  0  0  0  0
   -3.7570    1.8505   -2.0864 H   0  0  0  0  0  0  0  0  0  0  0  0
   -2.8393   -1.6449    1.3737 H   0  0  0  0  0  0  0  0  0  0  0  0
   -1.3539   -2.7191    1.6386 H   0  0  0  0  0  0  0  0  0  0  0  0
   -1.4422   -1.0694    2.3215 H   0  0  0  0  0  0  0  0  0  0  0  0
   -1.6231   -1.5477   -1.6504 H   0  0  0  0  0  0  0  0  0  0  0  0
    0.7944   -1.8070    0.9281 H   0  0  0  0  0  0  0  0  0  0  0  0
    0.3403   -0.1318    1.4413 H   0  0  0  0  0  0  0  0  0  0  0  0
    0.9885   -0.8790   -1.3525 H   0  0  0  0  0  0  0  0  0  0  0  0
    3.0502   -1.1284   -0.0558 H   0  0  0  0  0  0  0  0  0  0  0  0
    3.7925    0.6819    1.3228 H   0  0  0  0  0  0  0  0  0  0  0  0
    1.9944    0.8596    1.7780 H   0  0  0  0  0  0  0  0  0  0  0  0
    4.2849    0.8256   -0.8157 H   0  0  0  0  0  0  0  0  0  0  0  0
    2.8072    1.1052   -1.9123 H   0  0  0  0  0  0  0  0  0  0  0  0
  1  2  1  0
  2  3  1  0
  3  4  2  0
  3  5  1  0
  5  6  1  0
  5  7  1  6
  5  8  1  0
  8  9  1  0
  9 10  1  0
 10 11  1  0
 11 12  1  0
 12 13  1  0
 13 10  1  0
  1 14  1  0
  1 15  1  0
  1 16  1  0
  6 17  1  0
  6 18  1  0
  6 19  1  0
  7 20  1  0
  8 21  1  0
  8 22  1  0
  9 23  1  0
 10 24  1  0
 11 25  1  0
 11 26  1  0
 13 27  1  0
 13 28  1  0
M  END
$$$$

     RDKit          3D

 28 28  0  0  0  0  0  0  0  0999 V2000
    3.3562    1.7162    0.3434 C   0  0  0  0  0  0  0  0  0  0  0  0
    2.4018    0.8785   -0.2760 O   0  0  0  0  0  0  0  0  0  0  0  0
    2.0124   -0.3149    0.3469 C   0  0  0  0  0  0  0  0  0  0  0  0
    2.5944   -0.5835    1.4231 O   0  0  0  0  0  0  0  0  0  0  0  0
    0.9722   -1.1878   -0.2125 C   0  0  1  0  0  0  0  0  0  0  0  0
    1.0597   -1.3978   -1.6992 C   0  0  0  0  0  0  0  0  0  0  0  0
    1.1509   -2.4539    0.3926 O   0  0  0  0  0  0  0  0  0  0  0  0
   -0.4355   -0.7961    0.2095 C   0  0  0  0  0  0  0  0  0  0  0  0
   -0.8356    0.4726   -0.2738 N   0  0  0  0  0  0  0  0  0  0  0  0
   -2.2542    0.6033   -0.2295 C   0  0  0  0  0  0  0  0  0  0  0  0
   -2.8693    1.7693    0.4493 C   0  0  0  0  0  0  0  0  0  0  0  0
   -3.6310    1.0150    1.3086 O   0  0  0  0  0  0  0  0  0  0  0  0
   -2.9608   -0.1373    0.8847 C   0  0  0  0  0  0  0  0  0  0  0  0
    4.2047    1.0747    0.6538 H   0  0  0  0  0  0  0  0  0  0  0  0
    3.7366    2.4969   -0.3107 H   0  0  0  0  0  0  0  0  0  0  0  0
    2.9184    2.1031    1.2984 H   0  0  0  0  0  0  0  0  0  0  0  0
    0.3948   -2.2627   -1.9417 H   0  0  0  0  0  0  0  0  0  0  0  0
    0.7746   -0.4948   -2.2792 H   0  0  0  0  0  0  0  0  0  0  0  0
    2.1054   -1.6866   -1.9241 H   0  0  0  0  0  0  0  0  0  0  0  0
    1.8762   -2.9532   -0.0700 H   0  0  0  0  0  0  0  0  0  0  0  0
   -1.0967   -1.6002   -0.1228 H   0  0  0  0  0  0  0  0  0  0  0  0
   -0.3934   -0.8077    1.3337 H   0  0  0  0  0  0  0  0  0  0  0  0
   -0.4524    0.8128   -1.1515 H   0  0  0  0  0  0  0  0  0  0  0  0
   -2.7725    0.3327   -1.1898 H   0  0  0  0  0  0  0  0  0  0  0  0
   -2.2118    2.4607    0.9689 H   0  0  0  0  0  0  0  0  0  0  0  0
   -3.5728    2.3647   -0.2166 H   0  0  0  0  0  0  0  0  0  0  0  0
   -2.3679   -0.5217    1.7077 H   0  0  0  0  0  0  0  0  0  0  0  0
   -3.7045   -0.9023    0.5769 H   0  0  0  0  0  0  0  0  0  0  0  0
  1  2  1  0
  2  3  1  0
  3  4  2  0
  3  5  1  0
  5  6  1  0
  5  7  1  1
  5  8  1  0
  8  9  1  0
  9 10  1  0
 10 11  1  0
 11 12  1  0
 12 13  1  0
 13 10  1  0
  1 14  1  0
  1 15  1  0
  1 16  1  0
  6 17  1  0
  6 18  1  0
  6 19  1  0
  7 20  1  0
  8 21  1  0
  8 22  1  0
  9 23  1  0
 10 24  1  0
 11 25  1  0
 11 26  1  0
 13 27  1  0
 13 28  1  0
M  END
$$$$

     RDKit          3D

 28 28  0  0  0  0  0  0  0  0999 V2000
    4.3700   -1.1174   -0.3848 C   0  0  0  0  0  0  0  0  0  0  0  0
    3.1504   -0.5264   -0.7916 O   0  0  0  0  0  0  0  0  0  0  0  0
    2.2541   -0.0106    0.1247 C   0  0  0  0  0  0  0  0  0  0  0  0
    2.5676   -0.0870    1.3592 O   0  0  0  0  0  0  0  0  0  0  0  0
    0.9729    0.6172   -0.1937 C   0  0  1  0  0  0  0  0  0  0  0  0
    0.9736    2.0260    0.3757 C   0  0  0  0  0  0  0  0  0  0  0  0
    0.7446    0.6359   -1.5702 O   0  0  0  0  0  0  0  0  0  0  0  0
   -0.1765   -0.1169    0.4433 C   0  0  0  0  0  0  0  0  0  0  0  0
   -1.4152    0.5105    0.1866 N   0  0  0  0  0  0  0  0  0  0  0  0
   -2.5822   -0.0697    0.7355 C   0  0  0  0  0  0  0  0  0  0  0  0
   -2.8508   -1.4422    0.2050 C   0  0  0  0  0  0  0  0  0  0  0  0
   -3.7767   -0.9231   -0.6885 O   0  0  0  0  0  0  0  0  0  0  0  0
   -3.8396    0.2557    0.0041 C   0  0  0  0  0  0  0  0  0  0  0  0
    4.5985   -0.7271    0.6468 H   0  0  0  0  0  0  0  0  0  0  0  0
    5.1822   -0.7612   -1.0335 H   0  0  0  0  0  0  0  0  0  0  0  0
    4.2468   -2.2033   -0.3532 H   0  0  0  0  0  0  0  0  0  0  0  0
    0.0255    2.5057    0.0192 H   0  0  0  0  0  0  0  0  0  0  0  0
    0.9733    1.9122    1.4853 H   0  0  0  0  0  0  0  0  0  0  0  0
    1.8784    2.5247   -0.0010 H   0  0  0  0  0  0  0  0  0  0  0  0
    0.9635   -0.2620   -1.9147 H   0  0  0  0  0  0  0  0  0  0  0  0
   -0.2022   -1.1750    0.1249 H   0  0  0  0  0  0  0  0  0  0  0  0
    0.0306   -0.1290    1.5467 H   0  0  0  0  0  0  0  0  0  0  0  0
   -1.5113    1.0579   -0.6665 H   0  0  0  0  0  0  0  0  0  0  0  0
   -2.7432    0.0539    1.8302 H   0  0  0  0  0  0  0  0  0  0  0  0
   -2.0156   -1.9116   -0.3506 H   0  0  0  0  0  0  0  0  0  0  0  0
   -3.2761   -2.1108    0.9848 H   0  0  0  0  0  0  0  0  0  0  0  0
   -4.7566    0.2847    0.6560 H   0  0  0  0  0  0  0  0  0  0  0  0
   -3.7860    1.1889   -0.5854 H   0  0  0  0  0  0  0  0  0  0  0  0
  1  2  1  0
  2  3  1  0
  3  4  2  0
  3  5  1  0
  5  6  1  0
  5  7  1  6
  5  8  1  0
  8  9  1  0
  9 10  1  0
 10 11  1  0
 11 12  1  0
 12 13  1  0
 13 10  1  0
  1 14  1  0
  1 15  1  0
  1 16  1  0
  6 17  1  0
  6 18  1  0
  6 19  1  0
  7 20  1  0
  8 21  1  0
  8 22  1  0
  9 23  1  0
 10 24  1  0
 11 25  1  0
 11 26  1  0
 13 27  1  0
 13 28  1  0
M  END
$$$$

     RDKit          3D

 28 28  0  0  0  0  0  0  0  0999 V2000
    3.7572    1.9252   -0.3228 C   0  0  0  0  0  0  0  0  0  0  0  0
    2.9391    0.9707    0.3254 O   0  0  0  0  0  0  0  0  0  0  0  0
    1.9624    0.3001   -0.4495 C   0  0  0  0  0  0  0  0  0  0  0  0
    1.8189    0.5551   -1.6730 O   0  0  0  0  0  0  0  0  0  0  0  0
    1.1256   -0.6970    0.1910 C   0  0  1  0  0  0  0  0  0  0  0  0
    1.7149   -2.0940   -0.0886 C   0  0  0  0  0  0  0  0  0  0  0  0
    1.2028   -0.5972    1.6128 O   0  0  0  0  0  0  0  0  0  0  0  0
   -0.2891   -0.7355   -0.2145 C   0  0  0  0  0  0  0  0  0  0  0  0
   -1.1035    0.3586    0.1815 N   0  0  0  0  0  0  0  0  0  0  0  0
   -2.4983    0.1371    0.1780 C   0  0  0  0  0  0  0  0  0  0  0  0
   -3.4029    1.2405   -0.3307 C   0  0  0  0  0  0  0  0  0  0  0  0
   -3.2126    0.7391   -1.6168 O   0  0  0  0  0  0  0  0  0  0  0  0
   -3.0934   -0.5312   -1.0279 C   0  0  0  0  0  0  0  0  0  0  0  0
    4.1720    2.6433    0.4300 H   0  0  0  0  0  0  0  0  0  0  0  0
    3.1257    2.4614   -1.0521 H   0  0  0  0  0  0  0  0  0  0  0  0
    4.5829    1.4080   -0.8786 H   0  0  0  0  0  0  0  0  0  0  0  0
    2.0981   -2.5700    0.8461 H   0  0  0  0  0  0  0  0  0  0  0  0
    1.0300   -2.7688   -0.5807 H   0  0  0  0  0  0  0  0  0  0  0  0
    2.5918   -1.9711   -0.7658 H   0  0  0  0  0  0  0  0  0  0  0  0
    0.3388   -0.2867    1.9272 H   0  0  0  0  0  0  0  0  0  0  0  0
   -0.7511   -1.7059    0.0703 H   0  0  0  0  0  0  0  0  0  0  0  0
   -0.3181   -0.7378   -1.3526 H   0  0  0  0  0  0  0  0  0  0  0  0
   -0.7232    1.1265    0.6953 H   0  0  0  0  0  0  0  0  0  0  0  0
   -2.8967   -0.2990    1.1552 H   0  0  0  0  0  0  0  0  0  0  0  0
   -3.0855    2.2626   -0.1248 H   0  0  0  0  0  0  0  0  0  0  0  0
   -4.4696    1.0200   -0.0218 H   0  0  0  0  0  0  0  0  0  0  0  0
   -4.1231   -0.9098   -0.7321 H   0  0  0  0  0  0  0  0  0  0  0  0
   -2.4933   -1.2444   -1.5831 H   0  0  0  0  0  0  0  0  0  0  0  0
  1  2  1  0
  2  3  1  0
  3  4  2  0
  3  5  1  0
  5  6  1  0
  5  7  1  1
  5  8  1  0
  8  9  1  0
  9 10  1  0
 10 11  1  0
 11 12  1  0
 12 13  1  0
 13 10  1  0
  1 14  1  0
  1 15  1  0
  1 16  1  0
  6 17  1  0
  6 18  1  0
  6 19  1  0
  7 20  1  0
  8 21  1  0
  8 22  1  0
  9 23  1  0
 10 24  1  0
 11 25  1  0
 11 26  1  0
 13 27  1  0
 13 28  1  0
M  END
$$$$

     RDKit          3D

 28 28  0  0  0  0  0  0  0  0999 V2000
    4.3316    1.2059    0.4493 C   0  0  0  0  0  0  0  0  0  0  0  0
    3.2121    0.4010    0.8364 O   0  0  0  0  0  0  0  0  0  0  0  0
    2.1763    0.1922   -0.0651 C   0  0  0  0  0  0  0  0  0  0  0  0
    2.2672    0.7324   -1.2016 O   0  0  0  0  0  0  0  0  0  0  0  0
    0.9677   -0.6329    0.2374 C   0  0  1  0  0  0  0  0  0  0  0  0
    1.0462   -1.8301   -0.6911 C   0  0  0  0  0  0  0  0  0  0  0  0
    0.9258   -1.0928    1.5181 O   0  0  0  0  0  0  0  0  0  0  0  0
   -0.2347    0.2253   -0.0588 C   0  0  0  0  0  0  0  0  0  0  0  0
   -1.4709   -0.4508    0.0982 N   0  0  0  0  0  0  0  0  0  0  0  0
   -2.6562    0.2267   -0.2367 C   0  0  0  0  0  0  0  0  0  0  0  0
   -3.0397    1.4713    0.4977 C   0  0  0  0  0  0  0  0  0  0  0  0
   -4.3360    0.9172    0.6808 O   0  0  0  0  0  0  0  0  0  0  0  0
   -3.8276   -0.3832    0.5499 C   0  0  0  0  0  0  0  0  0  0  0  0
    5.2249    0.8084    0.9973 H   0  0  0  0  0  0  0  0  0  0  0  0
    4.2244    2.2595    0.6922 H   0  0  0  0  0  0  0  0  0  0  0  0
    4.4966    1.0428   -0.6377 H   0  0  0  0  0  0  0  0  0  0  0  0
    0.7135   -1.6167   -1.7149 H   0  0  0  0  0  0  0  0  0  0  0  0
    2.1288   -2.1075   -0.7616 H   0  0  0  0  0  0  0  0  0  0  0  0
    0.5535   -2.6858   -0.2070 H   0  0  0  0  0  0  0  0  0  0  0  0
    1.7307   -1.5057    1.8661 H   0  0  0  0  0  0  0  0  0  0  0  0
   -0.2131    1.0781    0.6871 H   0  0  0  0  0  0  0  0  0  0  0  0
   -0.1639    0.7184   -1.0605 H   0  0  0  0  0  0  0  0  0  0  0  0
   -1.4685   -1.4629    0.1904 H   0  0  0  0  0  0  0  0  0  0  0  0
   -2.9272    0.2980   -1.3100 H   0  0  0  0  0  0  0  0  0  0  0  0
   -3.1795    2.3760   -0.1560 H   0  0  0  0  0  0  0  0  0  0  0  0
   -2.5362    1.6698    1.4518 H   0  0  0  0  0  0  0  0  0  0  0  0
   -4.4129   -1.0770   -0.0734 H   0  0  0  0  0  0  0  0  0  0  0  0
   -3.5329   -0.7777    1.5293 H   0  0  0  0  0  0  0  0  0  0  0  0
  1  2  1  0
  2  3  1  0
  3  4  2  0
  3  5  1  0
  5  6  1  0
  5  7  1  1
  5  8  1  0
  8  9  1  0
  9 10  1  0
 10 11  1  0
 11 12  1  0
 12 13  1  0
 13 10  1  0
  1 14  1  0
  1 15  1  0
  1 16  1  0
  6 17  1  0
  6 18  1  0
  6 19  1  0
  7 20  1  0
  8 21  1  0
  8 22  1  0
  9 23  1  0
 10 24  1  0
 11 25  1  0
 11 26  1  0
 13 27  1  0
 13 28  1  0
M  END
$$$$

     RDKit          3D

 28 28  0  0  0  0  0  0  0  0999 V2000
    3.2319   -1.8531   -0.3436 C   0  0  0  0  0  0  0  0  0  0  0  0
    2.6219   -0.5972   -0.6214 O   0  0  0  0  0  0  0  0  0  0  0  0
    1.5373   -0.1086    0.1513 C   0  0  0  0  0  0  0  0  0  0  0  0
    1.1544   -0.8359    1.0689 O   0  0  0  0  0  0  0  0  0  0  0  0
    0.9275    1.1919   -0.1476 C   0  0  1  0  0  0  0  0  0  0  0  0
    1.0462    2.1372    1.0196 C   0  0  0  0  0  0  0  0  0  0  0  0
    1.8060    1.7571   -1.1525 O   0  0  0  0  0  0  0  0  0  0  0  0
   -0.4455    1.1689   -0.7043 C   0  0  0  0  0  0  0  0  0  0  0  0
   -1.5419    0.7525    0.0041 N   0  0  0  0  0  0  0  0  0  0  0  0
   -1.8365   -0.5489    0.3937 C   0  0  0  0  0  0  0  0  0  0  0  0
   -3.3833   -0.6770    0.5517 C   0  0  0  0  0  0  0  0  0  0  0  0
   -3.4696   -1.2443   -0.7225 O   0  0  0  0  0  0  0  0  0  0  0  0
   -2.1107   -1.5921   -0.6686 C   0  0  0  0  0  0  0  0  0  0  0  0
    2.5316   -2.7039   -0.3886 H   0  0  0  0  0  0  0  0  0  0  0  0
    4.0473   -1.9636   -1.0926 H   0  0  0  0  0  0  0  0  0  0  0  0
    3.7316   -1.7755    0.6431 H   0  0  0  0  0  0  0  0  0  0  0  0
    2.1508    2.2939    1.1825 H   0  0  0  0  0  0  0  0  0  0  0  0
    0.5652    3.1138    0.7943 H   0  0  0  0  0  0  0  0  0  0  0  0
    0.6472    1.6704    1.9302 H   0  0  0  0  0  0  0  0  0  0  0  0
    2.7157    1.6083   -0.7788 H   0  0  0  0  0  0  0  0  0  0  0  0
   -0.6441    2.2467   -1.0511 H   0  0  0  0  0  0  0  0  0  0  0  0
   -0.4341    0.6193   -1.7132 H   0  0  0  0  0  0  0  0  0  0  0  0
   -2.2670    1.4760    0.2471 H   0  0  0  0  0  0  0  0  0  0  0  0
   -1.4024   -0.9893    1.3182 H   0  0  0  0  0  0  0  0  0  0  0  0
   -3.9025    0.2984    0.5572 H   0  0  0  0  0  0  0  0  0  0  0  0
   -3.6891   -1.2913    1.3974 H   0  0  0  0  0  0  0  0  0  0  0  0
   -2.0344   -2.6348   -0.2734 H   0  0  0  0  0  0  0  0  0  0  0  0
   -1.5534   -1.5190   -1.6011 H   0  0  0  0  0  0  0  0  0  0  0  0
  1  2  1  0
  2  3  1  0
  3  4  2  0
  3  5  1  0
  5  6  1  0
  5  7  1  6
  5  8  1  0
  8  9  1  0
  9 10  1  0
 10 11  1  0
 11 12  1  0
 12 13  1  0
 13 10  1  0
  1 14  1  0
  1 15  1  0
  1 16  1  0
  6 17  1  0
  6 18  1  0
  6 19  1  0
  7 20  1  0
  8 21  1  0
  8 22  1  0
  9 23  1  0
 10 24  1  0
 11 25  1  0
 11 26  1  0
 13 27  1  0
 13 28  1  0
M  END
$$$$
