
     RDKit          3D

 24 24  0  0  0  0  0  0  0  0999 V2000
    4.4533   -0.6411   -0.3898 N   0  0  0  0  0  0  0  0  0  0  0  0
    3.2572    0.1049   -0.2213 C   0  0  0  0  0  0  0  0  0  0  0  0
    3.3063    1.3380   -0.0352 O   0  0  0  0  0  0  0  0  0  0  0  0
    1.9643   -0.5891   -0.2685 C   0  0  0  0  0  0  0  0  0  0  0  0
    1.9259   -1.8339   -0.4569 O   0  0  0  0  0  0  0  0  0  0  0  0
    0.7476    0.1251   -0.1041 N   0  0  0  0  0  0  0  0  0  0  0  0
   -0.5436   -0.5288   -0.1453 C   0  0  2  0  0  0  0  0  0  0  0  0
   -1.4193    0.0321   -1.2428 C   0  0  0  0  0  0  0  0  0  0  0  0
   -1.9469    1.2910   -0.5640 C   0  0  0  0  0  0  0  0  0  0  0  0
   -2.4340    0.7039    0.7461 C   0  0  0  0  0  0  0  0  0  0  0  0
   -1.3427   -0.2465    1.1142 C   0  0  1  0  0  0  0  0  0  0  0  0
   -1.8500   -1.4240    1.6599 O   0  0  0  0  0  0  0  0  0  0  0  0
    5.3500   -0.2953   -0.0063 H   0  0  0  0  0  0  0  0  0  0  0  0
    4.4124   -1.5448   -0.9073 H   0  0  0  0  0  0  0  0  0  0  0  0
    0.8121    1.1522    0.0499 H   0  0  0  0  0  0  0  0  0  0  0  0
   -0.4215   -1.6141   -0.3169 H   0  0  0  0  0  0  0  0  0  0  0  0
   -2.2769   -0.6579   -1.3550 H   0  0  0  0  0  0  0  0  0  0  0  0
   -0.8848    0.2356   -2.1689 H   0  0  0  0  0  0  0  0  0  0  0  0
   -1.0992    1.9579   -0.3829 H   0  0  0  0  0  0  0  0  0  0  0  0
   -2.7680    1.7553   -1.1424 H   0  0  0  0  0  0  0  0  0  0  0  0
   -2.6012    1.5009    1.4979 H   0  0  0  0  0  0  0  0  0  0  0  0
   -3.3890    0.1670    0.4997 H   0  0  0  0  0  0  0  0  0  0  0  0
   -0.6770    0.2642    1.8569 H   0  0  0  0  0  0  0  0  0  0  0  0
   -2.5750   -1.2526    2.2829 H   0  0  0  0  0  0  0  0  0  0  0  0
  1  2  1  0
  2  3  2  0
  2  4  1  0
  4  5  2  0
  4  6  1  0
  6  7  1  0
  7  8  1  0
  8  9  1  0
  9 10  1  0
 10 11  1  0
 11 12  1  0
 11  7  1  0
  1 13  1  0
  1 14  1  0
  6 15  1  0
  7 16  1  6
  8 17  1  0
  8 18  1  0
  9 19  1  0
  9 20  1  0
 10 21  1  0
 10 22  1  0
 11 23  1  1
 12 24  1  0
M  END
$$$$

     RDKit          3D

 24 24  0  0  0  0  0  0  0  0999 V2000
    4.5146    0.4026    0.2882 N   0  0  0  0  0  0  0  0  0  0  0  0
    3.3021    0.6425   -0.3738 C   0  0  0  0  0  0  0  0  0  0  0  0
    3.2688    1.3193   -1.4211 O   0  0  0  0  0  0  0  0  0  0  0  0
    2.0742    0.0744    0.2012 C   0  0  0  0  0  0  0  0  0  0  0  0
    2.0909   -0.6082    1.2532 O   0  0  0  0  0  0  0  0  0  0  0  0
    0.8144    0.2907   -0.4359 N   0  0  0  0  0  0  0  0  0  0  0  0
   -0.3807   -0.2686    0.1336 C   0  0  2  0  0  0  0  0  0  0  0  0
   -1.0749   -1.2375   -0.8230 C   0  0  0  0  0  0  0  0  0  0  0  0
   -2.4548   -1.2832   -0.1519 C   0  0  0  0  0  0  0  0  0  0  0  0
   -2.7423    0.2214   -0.0913 C   0  0  0  0  0  0  0  0  0  0  0  0
   -1.4342    0.7856    0.3711 C   0  0  1  0  0  0  0  0  0  0  0  0
   -1.4572    1.0480    1.7591 O   0  0  0  0  0  0  0  0  0  0  0  0
    4.9202    1.0579    0.9932 H   0  0  0  0  0  0  0  0  0  0  0  0
    5.0793   -0.4725    0.0946 H   0  0  0  0  0  0  0  0  0  0  0  0
    0.7837    0.8491   -1.3007 H   0  0  0  0  0  0  0  0  0  0  0  0
   -0.1627   -0.8350    1.0560 H   0  0  0  0  0  0  0  0  0  0  0  0
   -0.6036   -2.2163   -0.8530 H   0  0  0  0  0  0  0  0  0  0  0  0
   -1.2094   -0.7759   -1.8090 H   0  0  0  0  0  0  0  0  0  0  0  0
   -2.3277   -1.6350    0.8898 H   0  0  0  0  0  0  0  0  0  0  0  0
   -3.1871   -1.8284   -0.7390 H   0  0  0  0  0  0  0  0  0  0  0  0
   -2.9196    0.5768   -1.1325 H   0  0  0  0  0  0  0  0  0  0  0  0
   -3.5921    0.4455    0.5781 H   0  0  0  0  0  0  0  0  0  0  0  0
   -1.1630    1.7203   -0.1807 H   0  0  0  0  0  0  0  0  0  0  0  0
   -2.1389    1.7266    1.9596 H   0  0  0  0  0  0  0  0  0  0  0  0
  1  2  1  0
  2  3  2  0
  2  4  1  0
  4  5  2  0
  4  6  1  0
  6  7  1  0
  7  8  1  0
  8  9  1  0
  9 10  1  0
 10 11  1  0
 11 12  1  0
 11  7  1  0
  1 13  1  0
  1 14  1  0
  6 15  1  0
  7 16  1  1
  8 17  1  0
  8 18  1  0
  9 19  1  0
  9 20  1  0
 10 21  1  0
 10 22  1  0
 11 23  1  6
 12 24  1  0
M  END
$$$$

     RDKit          3D

 24 24  0  0  0  0  0  0  0  0999 V2000
    4.4600    0.2863   -0.6093 N   0  0  0  0  0  0  0  0  0  0  0  0
    3.2410   -0.4322   -0.5301 C   0  0  0  0  0  0  0  0  0  0  0  0
    3.1711   -1.6617   -0.7194 O   0  0  0  0  0  0  0  0  0  0  0  0
    2.0099    0.3195   -0.2091 C   0  0  0  0  0  0  0  0  0  0  0  0
    2.0396    1.5609   -0.0112 O   0  0  0  0  0  0  0  0  0  0  0  0
    0.7504   -0.3218   -0.1108 N   0  0  0  0  0  0  0  0  0  0  0  0
   -0.4690    0.4131    0.2056 C   0  0  2  0  0  0  0  0  0  0  0  0
   -0.9590   -0.1588    1.5375 C   0  0  0  0  0  0  0  0  0  0  0  0
   -2.1310   -1.0167    1.1066 C   0  0  0  0  0  0  0  0  0  0  0  0
   -2.7768   -0.0701    0.0875 C   0  0  0  0  0  0  0  0  0  0  0  0
   -1.5570    0.1976   -0.7862 C   0  0  1  0  0  0  0  0  0  0  0  0
   -1.7563    1.2278   -1.6689 O   0  0  0  0  0  0  0  0  0  0  0  0
    5.0526    0.1922   -1.4531 H   0  0  0  0  0  0  0  0  0  0  0  0
    4.7745    0.9038    0.1552 H   0  0  0  0  0  0  0  0  0  0  0  0
    0.6667   -1.3368   -0.2629 H   0  0  0  0  0  0  0  0  0  0  0  0
   -0.2719    1.4957    0.3506 H   0  0  0  0  0  0  0  0  0  0  0  0
   -0.1792   -0.7240    2.0560 H   0  0  0  0  0  0  0  0  0  0  0  0
   -1.3755    0.6837    2.1487 H   0  0  0  0  0  0  0  0  0  0  0  0
   -1.7264   -1.8744    0.5438 H   0  0  0  0  0  0  0  0  0  0  0  0
   -2.8023   -1.2764    1.9172 H   0  0  0  0  0  0  0  0  0  0  0  0
   -3.0478    0.8944    0.5794 H   0  0  0  0  0  0  0  0  0  0  0  0
   -3.5989   -0.5357   -0.4517 H   0  0  0  0  0  0  0  0  0  0  0  0
   -1.3398   -0.7546   -1.3407 H   0  0  0  0  0  0  0  0  0  0  0  0
   -2.1748    1.9881   -1.2298 H   0  0  0  0  0  0  0  0  0  0  0  0
  1  2  1  0
  2  3  2  0
  2  4  1  0
  4  5  2  0
  4  6  1  0
  6  7  1  0
  7  8  1  0
  8  9  1  0
  9 10  1  0
 10 11  1  0
 11 12  1  0
 11  7  1  0
  1 13  1  0
  1 14  1  0
  6 15  1  0
  7 16  1  1
  8 17  1  0
  8 18  1  0
  9 19  1  0
  9 20  1  0
 10 21  1  0
 10 22  1  0
 11 23  1  6
 12 24  1  0
M  END
$$$$

     RDKit          3D

 24 24  0  0  0  0  0  0  0  0999 V2000
    4.5196   -0.2939   -0.7107 N   0  0  0  0  0  0  0  0  0  0  0  0
    3.2116   -0.5488   -1.1937 C   0  0  0  0  0  0  0  0  0  0  0  0
    3.0426   -1.0976   -2.3125 O   0  0  0  0  0  0  0  0  0  0  0  0
    2.0362   -0.1771   -0.3977 C   0  0  0  0  0  0  0  0  0  0  0  0
    2.2124    0.3763    0.7302 O   0  0  0  0  0  0  0  0  0  0  0  0
    0.7184   -0.3983   -0.8118 N   0  0  0  0  0  0  0  0  0  0  0  0
   -0.3938   -0.0069    0.0226 C   0  0  2  0  0  0  0  0  0  0  0  0
   -1.3252   -1.1938    0.3028 C   0  0  0  0  0  0  0  0  0  0  0  0
   -2.5984   -0.5258    0.7507 C   0  0  0  0  0  0  0  0  0  0  0  0
   -2.5380    0.9046    0.2544 C   0  0  0  0  0  0  0  0  0  0  0  0
   -1.3511    0.9222   -0.6878 C   0  0  1  0  0  0  0  0  0  0  0  0
   -0.8360    2.1967   -0.8541 O   0  0  0  0  0  0  0  0  0  0  0  0
    5.0536   -0.9509   -0.0920 H   0  0  0  0  0  0  0  0  0  0  0  0
    4.9896    0.5953   -0.9791 H   0  0  0  0  0  0  0  0  0  0  0  0
    0.5424   -0.8510   -1.7337 H   0  0  0  0  0  0  0  0  0  0  0  0
   -0.0865    0.4570    0.9638 H   0  0  0  0  0  0  0  0  0  0  0  0
   -0.9019   -1.8884    1.0301 H   0  0  0  0  0  0  0  0  0  0  0  0
   -1.4533   -1.6928   -0.6910 H   0  0  0  0  0  0  0  0  0  0  0  0
   -3.5116   -1.0401    0.3964 H   0  0  0  0  0  0  0  0  0  0  0  0
   -2.6509   -0.5613    1.8694 H   0  0  0  0  0  0  0  0  0  0  0  0
   -3.4786    1.1953   -0.2693 H   0  0  0  0  0  0  0  0  0  0  0  0
   -2.3231    1.5464    1.1285 H   0  0  0  0  0  0  0  0  0  0  0  0
   -1.6886    0.4663   -1.6407 H   0  0  0  0  0  0  0  0  0  0  0  0
   -1.1894    2.5665   -1.6968 H   0  0  0  0  0  0  0  0  0  0  0  0
  1  2  1  0
  2  3  2  0
  2  4  1  0
  4  5  2  0
  4  6  1  0
  6  7  1  0
  7  8  1  0
  8  9  1  0
  9 10  1  0
 10 11  1  0
 11 12  1  0
 11  7  1  0
  1 13  1  0
  1 14  1  0
  6 15  1  0
  7 16  1  1
  8 17  1  0
  8 18  1  0
  9 19  1  0
  9 20  1  0
 10 21  1  0
 10 22  1  0
 11 23  1  6
 12 24  1  0
M  END
$$$$

     RDKit          3D

 24 24  0  0  0  0  0  0  0  0999 V2000
    4.5364   -0.0831   -0.5671 N   0  0  0  0  0  0  0  0  0  0  0  0
    3.3505    0.0028    0.2063 C   0  0  0  0  0  0  0  0  0  0  0  0
    3.4742    0.0771    1.4520 O   0  0  0  0  0  0  0  0  0  0  0  0
    2.0403    0.0044   -0.4243 C   0  0  0  0  0  0  0  0  0  0  0  0
    1.9230   -0.0696   -1.6620 O   0  0  0  0  0  0  0  0  0  0  0  0
    0.8769    0.0928    0.4020 N   0  0  0  0  0  0  0  0  0  0  0  0
   -0.4383    0.0992   -0.1560 C   0  0  2  0  0  0  0  0  0  0  0  0
   -1.2094    1.3789    0.1891 C   0  0  0  0  0  0  0  0  0  0  0  0
   -2.6697    0.9706    0.0714 C   0  0  0  0  0  0  0  0  0  0  0  0
   -2.6933   -0.5075   -0.1535 C   0  0  0  0  0  0  0  0  0  0  0  0
   -1.3543   -0.9430    0.4432 C   0  0  1  0  0  0  0  0  0  0  0  0
   -1.0204   -2.2288    0.1129 O   0  0  0  0  0  0  0  0  0  0  0  0
    4.8275   -0.9660   -1.0324 H   0  0  0  0  0  0  0  0  0  0  0  0
    5.1160    0.7900   -0.6527 H   0  0  0  0  0  0  0  0  0  0  0  0
    0.9807    0.1543    1.4323 H   0  0  0  0  0  0  0  0  0  0  0  0
   -0.4291    0.0292   -1.2662 H   0  0  0  0  0  0  0  0  0  0  0  0
   -0.9274    2.1755   -0.5013 H   0  0  0  0  0  0  0  0  0  0  0  0
   -0.9774    1.6686    1.2286 H   0  0  0  0  0  0  0  0  0  0  0  0
   -3.2565    1.2342    0.9591 H   0  0  0  0  0  0  0  0  0  0  0  0
   -3.1324    1.4546   -0.8224 H   0  0  0  0  0  0  0  0  0  0  0  0
   -3.5365   -1.0253    0.3243 H   0  0  0  0  0  0  0  0  0  0  0  0
   -2.6056   -0.7266   -1.2480 H   0  0  0  0  0  0  0  0  0  0  0  0
   -1.4201   -0.7477    1.5327 H   0  0  0  0  0  0  0  0  0  0  0  0
   -1.4552   -2.8345    0.7741 H   0  0  0  0  0  0  0  0  0  0  0  0
  1  2  1  0
  2  3  2  0
  2  4  1  0
  4  5  2  0
  4  6  1  0
  6  7  1  0
  7  8  1  0
  8  9  1  0
  9 10  1  0
 10 11  1  0
 11 12  1  0
 11  7  1  0
  1 13  1  0
  1 14  1  0
  6 15  1  0
  7 16  1  6
  8 17  1  0
  8 18  1  0
  9 19  1  0
  9 20  1  0
 10 21  1  0
 10 22  1  0
 11 23  1  1
 12 24  1  0
M  END
$$$$

     RDKit          3D

 24 24  0  0  0  0  0  0  0  0999 V2000
    4.4653    0.3010   -0.1423 N   0  0  0  0  0  0  0  0  0  0  0  0
    3.2238    0.3604    0.5390 C   0  0  0  0  0  0  0  0  0  0  0  0
    3.2078    0.6169    1.7474 O   0  0  0  0  0  0  0  0  0  0  0  0
    2.0073    0.1201   -0.1941 C   0  0  0  0  0  0  0  0  0  0  0  0
    2.0267   -0.1445   -1.4413 O   0  0  0  0  0  0  0  0  0  0  0  0
    0.7107    0.1563    0.3954 N   0  0  0  0  0  0  0  0  0  0  0  0
   -0.5057   -0.0898   -0.3646 C   0  0  2  0  0  0  0  0  0  0  0  0
   -1.3516    1.1629   -0.2804 C   0  0  0  0  0  0  0  0  0  0  0  0
   -2.3830    0.7884    0.7640 C   0  0  0  0  0  0  0  0  0  0  0  0
   -2.7180   -0.6294    0.3373 C   0  0  0  0  0  0  0  0  0  0  0  0
   -1.3102   -1.2164    0.1983 C   0  0  1  0  0  0  0  0  0  0  0  0
   -1.4224   -2.2960   -0.6668 O   0  0  0  0  0  0  0  0  0  0  0  0
    4.7649    1.1379   -0.6907 H   0  0  0  0  0  0  0  0  0  0  0  0
    5.0657   -0.5658   -0.0939 H   0  0  0  0  0  0  0  0  0  0  0  0
    0.6610    0.3699    1.4135 H   0  0  0  0  0  0  0  0  0  0  0  0
   -0.2958   -0.2991   -1.4146 H   0  0  0  0  0  0  0  0  0  0  0  0
   -0.7690    2.0382    0.0805 H   0  0  0  0  0  0  0  0  0  0  0  0
   -1.8589    1.3668   -1.2425 H   0  0  0  0  0  0  0  0  0  0  0  0
   -1.9631    0.8386    1.7840 H   0  0  0  0  0  0  0  0  0  0  0  0
   -3.2701    1.4532    0.6702 H   0  0  0  0  0  0  0  0  0  0  0  0
   -3.1346   -0.5599   -0.6866 H   0  0  0  0  0  0  0  0  0  0  0  0
   -3.3319   -1.1677    1.0516 H   0  0  0  0  0  0  0  0  0  0  0  0
   -0.9673   -1.5326    1.2089 H   0  0  0  0  0  0  0  0  0  0  0  0
   -0.8515   -2.2095   -1.4698 H   0  0  0  0  0  0  0  0  0  0  0  0
  1  2  1  0
  2  3  2  0
  2  4  1  0
  4  5  2  0
  4  6  1  0
  6  7  1  0
  7  8  1  0
  8  9  1  0
  9 10  1  0
 10 11  1  0
 11 12  1  0
 11  7  1  0
  1 13  1  0
  1 14  1  0
  6 15  1  0
  7 16  1  6
  8 17  1  0
  8 18  1  0
  9 19  1  0
  9 20  1  0
 10 21  1  0
 10 22  1  0
 11 23  1  1
 12 24  1  0
M  END
$$$$

     RDKit          3D

 24 24  0  0  0  0  0  0  0  0999 V2000
    4.5232    0.0232   -0.5369 N   0  0  0  0  0  0  0  0  0  0  0  0
    3.3563   -0.1074    0.2528 C   0  0  0  0  0  0  0  0  0  0  0  0
    3.4469   -0.3746    1.4774 O   0  0  0  0  0  0  0  0  0  0  0  0
    2.0302    0.0606   -0.3160 C   0  0  0  0  0  0  0  0  0  0  0  0
    1.9140    0.3239   -1.5177 O   0  0  0  0  0  0  0  0  0  0  0  0
    0.8556   -0.0696    0.4727 N   0  0  0  0  0  0  0  0  0  0  0  0
   -0.4817    0.0864   -0.0392 C   0  0  2  0  0  0  0  0  0  0  0  0
   -1.2067    1.2576    0.5902 C   0  0  0  0  0  0  0  0  0  0  0  0
   -2.6446    0.7872    0.4992 C   0  0  0  0  0  0  0  0  0  0  0  0
   -2.4953   -0.6449    1.0127 C   0  0  0  0  0  0  0  0  0  0  0  0
   -1.3387   -1.1200    0.1246 C   0  0  1  0  0  0  0  0  0  0  0  0
   -1.9486   -1.4625   -1.1052 O   0  0  0  0  0  0  0  0  0  0  0  0
    4.9676   -0.8600   -0.9036 H   0  0  0  0  0  0  0  0  0  0  0  0
    4.9241    0.9761   -0.7442 H   0  0  0  0  0  0  0  0  0  0  0  0
    1.0085   -0.2936    1.4864 H   0  0  0  0  0  0  0  0  0  0  0  0
   -0.3898    0.3171   -1.1236 H   0  0  0  0  0  0  0  0  0  0  0  0
   -0.9121    1.4092    1.6558 H   0  0  0  0  0  0  0  0  0  0  0  0
   -1.0651    2.1877   -0.0031 H   0  0  0  0  0  0  0  0  0  0  0  0
   -2.9076    0.7095   -0.5768 H   0  0  0  0  0  0  0  0  0  0  0  0
   -3.3396    1.3741    1.0962 H   0  0  0  0  0  0  0  0  0  0  0  0
   -2.2103   -0.6406    2.0709 H   0  0  0  0  0  0  0  0  0  0  0  0
   -3.3980   -1.2368    0.8760 H   0  0  0  0  0  0  0  0  0  0  0  0
   -0.8409   -2.0019    0.5338 H   0  0  0  0  0  0  0  0  0  0  0  0
   -1.8477   -0.7007   -1.7488 H   0  0  0  0  0  0  0  0  0  0  0  0
  1  2  1  0
  2  3  2  0
  2  4  1  0
  4  5  2  0
  4  6  1  0
  6  7  1  0
  7  8  1  0
  8  9  1  0
  9 10  1  0
 10 11  1  0
 11 12  1  0
 11  7  1  0
  1 13  1  0
  1 14  1  0
  6 15  1  0
  7 16  1  6
  8 17  1  0
  8 18  1  0
  9 19  1  0
  9 20  1  0
 10 21  1  0
 10 22  1  0
 11 23  1  1
 12 24  1  0
M  END
$$$$

     RDKit          3D

 24 24  0  0  0  0  0  0  0  0999 V2000
    4.4867    0.3082    0.6894 N   0  0  0  0  0  0  0  0  0  0  0  0
    3.3035   -0.4346    0.4706 C   0  0  0  0  0  0  0  0  0  0  0  0
    3.4198   -1.6801    0.3698 O   0  0  0  0  0  0  0  0  0  0  0  0
    1.9892    0.1742    0.3605 C   0  0  0  0  0  0  0  0  0  0  0  0
    1.8575    1.4320    0.4605 O   0  0  0  0  0  0  0  0  0  0  0  0
    0.7991   -0.5521    0.1422 N   0  0  0  0  0  0  0  0  0  0  0  0
   -0.4754    0.0835    0.0397 C   0  0  2  0  0  0  0  0  0  0  0  0
   -1.4590   -0.3731    1.1073 C   0  0  0  0  0  0  0  0  0  0  0  0
   -2.6829    0.4319    0.6456 C   0  0  0  0  0  0  0  0  0  0  0  0
   -2.6107    0.3368   -0.8657 C   0  0  0  0  0  0  0  0  0  0  0  0
   -1.2430   -0.2235   -1.1954 C   0  0  1  0  0  0  0  0  0  0  0  0
   -0.7178    0.3658   -2.3405 O   0  0  0  0  0  0  0  0  0  0  0  0
    5.3485    0.2099    0.1192 H   0  0  0  0  0  0  0  0  0  0  0  0
    4.4962    0.9953    1.4684 H   0  0  0  0  0  0  0  0  0  0  0  0
    0.8553   -1.5907    0.0530 H   0  0  0  0  0  0  0  0  0  0  0  0
   -0.3899    1.1839    0.1527 H   0  0  0  0  0  0  0  0  0  0  0  0
   -1.1486   -0.1045    2.1165 H   0  0  0  0  0  0  0  0  0  0  0  0
   -1.7491   -1.4300    0.9710 H   0  0  0  0  0  0  0  0  0  0  0  0
   -3.6026    0.0212    1.0668 H   0  0  0  0  0  0  0  0  0  0  0  0
   -2.4716    1.4829    0.9894 H   0  0  0  0  0  0  0  0  0  0  0  0
   -2.6532    1.3588   -1.3078 H   0  0  0  0  0  0  0  0  0  0  0  0
   -3.4261   -0.3133   -1.2316 H   0  0  0  0  0  0  0  0  0  0  0  0
   -1.3605   -1.3185   -1.2928 H   0  0  0  0  0  0  0  0  0  0  0  0
   -0.5656   -0.3638   -2.9889 H   0  0  0  0  0  0  0  0  0  0  0  0
  1  2  1  0
  2  3  2  0
  2  4  1  0
  4  5  2  0
  4  6  1  0
  6  7  1  0
  7  8  1  0
  8  9  1  0
  9 10  1  0
 10 11  1  0
 11 12  1  0
 11  7  1  0
  1 13  1  0
  1 14  1  0
  6 15  1  0
  7 16  1  1
  8 17  1  0
  8 18  1  0
  9 19  1  0
  9 20  1  0
 10 21  1  0
 10 22  1  0
 11 23  1  6
 12 24  1  0
M  END
$$$$
