
     RDKit          3D

 24 24  0  0  0  0  0  0  0  0999 V2000
    2.6143   -0.7460    1.4372 O   0  0  0  0  0  0  0  0  0  0  0  0
    2.4758   -0.7048    0.0688 C   0  0  0  0  0  0  0  0  0  0  0  0
    1.6615    0.4692   -0.4177 C   0  0  1  0  0  0  0  0  0  0  0  0
    1.5857    0.4143   -1.7953 O   0  0  0  0  0  0  0  0  0  0  0  0
    0.2983    0.4405    0.2295 C   0  0  1  0  0  0  0  0  0  0  0  0
   -0.4670    1.5224   -0.1891 O   0  0  0  0  0  0  0  0  0  0  0  0
   -1.7863    1.2274    0.0296 C   0  0  1  0  0  0  0  0  0  0  0  0
   -2.5666    1.6429   -1.0736 O   0  0  0  0  0  0  0  0  0  0  0  0
   -1.9097   -0.2608    0.2343 C   0  0  2  0  0  0  0  0  0  0  0  0
   -1.9472   -0.4897    1.6058 O   0  0  0  0  0  0  0  0  0  0  0  0
   -0.5372   -0.7241   -0.2746 C   0  0  2  0  0  0  0  0  0  0  0  0
   -0.1673   -1.9300    0.2468 O   0  0  0  0  0  0  0  0  0  0  0  0
    2.3693    0.0885    1.8939 H   0  0  0  0  0  0  0  0  0  0  0  0
    3.5101   -0.5787   -0.3592 H   0  0  0  0  0  0  0  0  0  0  0  0
    2.0852   -1.6623   -0.3198 H   0  0  0  0  0  0  0  0  0  0  0  0
    2.1604    1.3984   -0.1021 H   0  0  0  0  0  0  0  0  0  0  0  0
    2.2111    1.0925   -2.1891 H   0  0  0  0  0  0  0  0  0  0  0  0
    0.4153    0.4241    1.3149 H   0  0  0  0  0  0  0  0  0  0  0  0
   -2.1489    1.8115    0.8949 H   0  0  0  0  0  0  0  0  0  0  0  0
   -3.4602    1.2387   -1.0256 H   0  0  0  0  0  0  0  0  0  0  0  0
   -2.7310   -0.7230   -0.3177 H   0  0  0  0  0  0  0  0  0  0  0  0
   -2.8542   -0.6581    1.9515 H   0  0  0  0  0  0  0  0  0  0  0  0
   -0.5795   -0.6651   -1.3638 H   0  0  0  0  0  0  0  0  0  0  0  0
   -0.2319   -2.6280   -0.4796 H   0  0  0  0  0  0  0  0  0  0  0  0
  1  2  1  0
  2  3  1  0
  3  4  1  0
  3  5  1  0
  5  6  1  0
  6  7  1  0
  7  8  1  0
  7  9  1  0
  9 10  1  0
  9 11  1  0
 11 12  1  0
 11  5  1  0
  1 13  1  0
  2 14  1  0
  2 15  1  0
  3 16  1  6
  4 17  1  0
  5 18  1  1
  7 19  1  1
  8 20  1  0
  9 21  1  6
 10 22  1  0
 11 23  1  6
 12 24  1  0
M  END
$$$$

     RDKit          3D

 24 24  0  0  0  0  0  0  0  0999 V2000
    2.5140   -0.9005   -1.5573 O   0  0  0  0  0  0  0  0  0  0  0  0
    2.3646   -1.1307   -0.1950 C   0  0  0  0  0  0  0  0  0  0  0  0
    1.4968   -0.0552    0.4501 C   0  0  1  0  0  0  0  0  0  0  0  0
    2.0760    1.2018    0.2820 O   0  0  0  0  0  0  0  0  0  0  0  0
    0.1696   -0.0606   -0.2613 C   0  0  1  0  0  0  0  0  0  0  0  0
   -0.5075   -1.2454   -0.1731 O   0  0  0  0  0  0  0  0  0  0  0  0
   -1.7396   -1.0281    0.3931 C   0  0  1  0  0  0  0  0  0  0  0  0
   -1.5686   -1.0131    1.7842 O   0  0  0  0  0  0  0  0  0  0  0  0
   -2.0715    0.4219    0.0082 C   0  0  2  0  0  0  0  0  0  0  0  0
   -2.3566    0.4148   -1.3460 O   0  0  0  0  0  0  0  0  0  0  0  0
   -0.7149    1.0314    0.2989 C   0  0  2  0  0  0  0  0  0  0  0  0
   -0.5093    2.2240   -0.3676 O   0  0  0  0  0  0  0  0  0  0  0  0
    2.8595    0.0040   -1.7538 H   0  0  0  0  0  0  0  0  0  0  0  0
    1.8902   -2.1257   -0.0784 H   0  0  0  0  0  0  0  0  0  0  0  0
    3.3385   -1.1062    0.3497 H   0  0  0  0  0  0  0  0  0  0  0  0
    1.3215   -0.2495    1.5066 H   0  0  0  0  0  0  0  0  0  0  0  0
    2.8276    1.2732    0.9330 H   0  0  0  0  0  0  0  0  0  0  0  0
    0.3034    0.1778   -1.3468 H   0  0  0  0  0  0  0  0  0  0  0  0
   -2.5316   -1.7075    0.0729 H   0  0  0  0  0  0  0  0  0  0  0  0
   -1.9398   -0.2123    2.1975 H   0  0  0  0  0  0  0  0  0  0  0  0
   -2.8758    0.8312    0.6299 H   0  0  0  0  0  0  0  0  0  0  0  0
   -2.4024   -0.4919   -1.7373 H   0  0  0  0  0  0  0  0  0  0  0  0
   -0.6123    1.1112    1.3919 H   0  0  0  0  0  0  0  0  0  0  0  0
   -1.3320    2.6354   -0.7255 H   0  0  0  0  0  0  0  0  0  0  0  0
  1  2  1  0
  2  3  1  0
  3  4  1  0
  3  5  1  0
  5  6  1  0
  6  7  1  0
  7  8  1  0
  7  9  1  0
  9 10  1  0
  9 11  1  0
 11 12  1  0
 11  5  1  0
  1 13  1  0
  2 14  1  0
  2 15  1  0
  3 16  1  1
  4 17  1  0
  5 18  1  6
  7 19  1  1
  8 20  1  0
  9 21  1  1
 10 22  1  0
 11 23  1  1
 12 24  1  0
M  END
$$$$

     RDKit          3D

 24 24  0  0  0  0  0  0  0  0999 V2000
    3.7605   -0.5217   -0.0505 O   0  0  0  0  0  0  0  0  0  0  0  0
    2.5062   -0.3846   -0.6398 C   0  0  0  0  0  0  0  0  0  0  0  0
    1.4889   -0.1323    0.4470 C   0  0  1  0  0  0  0  0  0  0  0  0
    1.8888    1.0553    1.0925 O   0  0  0  0  0  0  0  0  0  0  0  0
    0.1127    0.1043   -0.0821 C   0  0  1  0  0  0  0  0  0  0  0  0
   -0.4331   -0.9633   -0.7466 O   0  0  0  0  0  0  0  0  0  0  0  0
   -1.8027   -0.8729   -0.6965 C   0  0  1  0  0  0  0  0  0  0  0  0
   -2.4169   -2.1161   -0.4552 O   0  0  0  0  0  0  0  0  0  0  0  0
   -2.1520    0.0743    0.4412 C   0  0  2  0  0  0  0  0  0  0  0  0
   -2.4551    1.3576   -0.0615 O   0  0  0  0  0  0  0  0  0  0  0  0
   -0.8121    0.1980    1.1396 C   0  0  2  0  0  0  0  0  0  0  0  0
   -0.6429    1.3939    1.7892 O   0  0  0  0  0  0  0  0  0  0  0  0
    4.2299    0.3661    0.0160 H   0  0  0  0  0  0  0  0  0  0  0  0
    2.4671    0.3473   -1.4450 H   0  0  0  0  0  0  0  0  0  0  0  0
    2.2584   -1.3820   -1.0764 H   0  0  0  0  0  0  0  0  0  0  0  0
    1.4901   -0.9274    1.1991 H   0  0  0  0  0  0  0  0  0  0  0  0
    2.0253    1.7559    0.3939 H   0  0  0  0  0  0  0  0  0  0  0  0
    0.0483    1.0421   -0.6660 H   0  0  0  0  0  0  0  0  0  0  0  0
   -2.2001   -0.4333   -1.6256 H   0  0  0  0  0  0  0  0  0  0  0  0
   -2.1184   -2.4049    0.4480 H   0  0  0  0  0  0  0  0  0  0  0  0
   -2.9458   -0.3103    1.0856 H   0  0  0  0  0  0  0  0  0  0  0  0
   -3.3348    1.3669   -0.5213 H   0  0  0  0  0  0  0  0  0  0  0  0
   -0.5750   -0.6868    1.7593 H   0  0  0  0  0  0  0  0  0  0  0  0
   -0.3874    2.0741    1.1246 H   0  0  0  0  0  0  0  0  0  0  0  0
  1  2  1  0
  2  3  1  0
  3  4  1  0
  3  5  1  0
  5  6  1  0
  6  7  1  0
  7  8  1  0
  7  9  1  0
  9 10  1  0
  9 11  1  0
 11 12  1  0
 11  5  1  0
  1 13  1  0
  2 14  1  0
  2 15  1  0
  3 16  1  1
  4 17  1  0
  5 18  1  6
  7 19  1  6
  8 20  1  0
  9 21  1  1
 10 22  1  0
 11 23  1  1
 12 24  1  0
M  END
$$$$

     RDKit          3D

 24 24  0  0  0  0  0  0  0  0999 V2000
    1.9348    0.5319    1.6579 O   0  0  0  0  0  0  0  0  0  0  0  0
    2.2642    0.5908    0.3070 C   0  0  0  0  0  0  0  0  0  0  0  0
    1.7414   -0.5652   -0.4742 C   0  0  1  0  0  0  0  0  0  0  0  0
    2.2932   -1.7318    0.0677 O   0  0  0  0  0  0  0  0  0  0  0  0
    0.2613   -0.7244   -0.4844 C   0  0  1  0  0  0  0  0  0  0  0  0
   -0.2451   -0.9187    0.8012 O   0  0  0  0  0  0  0  0  0  0  0  0
   -1.6002   -0.5224    0.6977 C   0  0  1  0  0  0  0  0  0  0  0  0
   -2.1933   -0.3721    1.9193 O   0  0  0  0  0  0  0  0  0  0  0  0
   -1.3945    0.8266    0.0314 C   0  0  2  0  0  0  0  0  0  0  0  0
   -2.5707    1.4000   -0.3968 O   0  0  0  0  0  0  0  0  0  0  0  0
   -0.4990    0.3922   -1.1106 C   0  0  2  0  0  0  0  0  0  0  0  0
   -1.3250   -0.0434   -2.1426 O   0  0  0  0  0  0  0  0  0  0  0  0
    2.5817    1.0304    2.2268 H   0  0  0  0  0  0  0  0  0  0  0  0
    1.9905    1.5805   -0.1097 H   0  0  0  0  0  0  0  0  0  0  0  0
    3.3741    0.5451    0.2543 H   0  0  0  0  0  0  0  0  0  0  0  0
    2.1437   -0.4903   -1.5058 H   0  0  0  0  0  0  0  0  0  0  0  0
    1.8624   -2.5177   -0.3416 H   0  0  0  0  0  0  0  0  0  0  0  0
    0.0270   -1.6550   -1.0441 H   0  0  0  0  0  0  0  0  0  0  0  0
   -2.1561   -1.1956    0.0045 H   0  0  0  0  0  0  0  0  0  0  0  0
   -2.6387   -1.1800    2.2610 H   0  0  0  0  0  0  0  0  0  0  0  0
   -0.8171    1.4479    0.7356 H   0  0  0  0  0  0  0  0  0  0  0  0
   -3.0395    1.7519    0.3830 H   0  0  0  0  0  0  0  0  0  0  0  0
    0.0788    1.2509   -1.4257 H   0  0  0  0  0  0  0  0  0  0  0  0
   -2.0739    0.5684   -2.3118 H   0  0  0  0  0  0  0  0  0  0  0  0
  1  2  1  0
  2  3  1  0
  3  4  1  0
  3  5  1  0
  5  6  1  0
  6  7  1  0
  7  8  1  0
  7  9  1  0
  9 10  1  0
  9 11  1  0
 11 12  1  0
 11  5  1  0
  1 13  1  0
  2 14  1  0
  2 15  1  0
  3 16  1  6
  4 17  1  0
  5 18  1  6
  7 19  1  6
  8 20  1  0
  9 21  1  1
 10 22  1  0
 11 23  1  6
 12 24  1  0
M  END
$$$$

     RDKit          3D

 24 24  0  0  0  0  0  0  0  0999 V2000
   -3.6191   -0.0121    0.2801 O   0  0  0  0  0  0  0  0  0  0  0  0
   -2.4743   -0.1696   -0.5310 C   0  0  0  0  0  0  0  0  0  0  0  0
   -1.3063   -0.3046    0.4132 C   0  0  1  0  0  0  0  0  0  0  0  0
   -1.4840   -1.4085    1.2360 O   0  0  0  0  0  0  0  0  0  0  0  0
    0.0102   -0.4471   -0.2951 C   0  0  1  0  0  0  0  0  0  0  0  0
    0.2639    0.6061   -1.1314 O   0  0  0  0  0  0  0  0  0  0  0  0
    1.3339    1.3211   -0.6572 C   0  0  1  0  0  0  0  0  0  0  0  0
    0.9092    2.2089    0.3410 O   0  0  0  0  0  0  0  0  0  0  0  0
    2.2010    0.2794    0.0412 C   0  0  2  0  0  0  0  0  0  0  0  0
    2.8558   -0.5408   -0.8768 O   0  0  0  0  0  0  0  0  0  0  0  0
    1.0916   -0.4893    0.7557 C   0  0  2  0  0  0  0  0  0  0  0  0
    1.4593   -1.7387    1.1427 O   0  0  0  0  0  0  0  0  0  0  0  0
   -3.8614    0.9304    0.3898 H   0  0  0  0  0  0  0  0  0  0  0  0
   -2.6100   -1.0430   -1.1844 H   0  0  0  0  0  0  0  0  0  0  0  0
   -2.3969    0.7545   -1.1260 H   0  0  0  0  0  0  0  0  0  0  0  0
   -1.2665    0.6160    1.0267 H   0  0  0  0  0  0  0  0  0  0  0  0
   -1.4706   -2.2320    0.6682 H   0  0  0  0  0  0  0  0  0  0  0  0
   -0.0006   -1.3997   -0.8781 H   0  0  0  0  0  0  0  0  0  0  0  0
    1.8893    1.8424   -1.4590 H   0  0  0  0  0  0  0  0  0  0  0  0
    0.1447    2.7510    0.0668 H   0  0  0  0  0  0  0  0  0  0  0  0
    2.8719    0.7545    0.7612 H   0  0  0  0  0  0  0  0  0  0  0  0
    3.1066   -0.0198   -1.6719 H   0  0  0  0  0  0  0  0  0  0  0  0
    0.7999    0.1271    1.6218 H   0  0  0  0  0  0  0  0  0  0  0  0
    1.5523   -2.3861    0.4285 H   0  0  0  0  0  0  0  0  0  0  0  0
  1  2  1  0
  2  3  1  0
  3  4  1  0
  3  5  1  0
  5  6  1  0
  6  7  1  0
  7  8  1  0
  7  9  1  0
  9 10  1  0
  9 11  1  0
 11 12  1  0
 11  5  1  0
  1 13  1  0
  2 14  1  0
  2 15  1  0
  3 16  1  1
  4 17  1  0
  5 18  1  6
  7 19  1  6
  8 20  1  0
  9 21  1  1
 10 22  1  0
 11 23  1  1
 12 24  1  0
M  END
$$$$

     RDKit          3D

 24 24  0  0  0  0  0  0  0  0999 V2000
    2.4617    1.1644    1.2782 O   0  0  0  0  0  0  0  0  0  0  0  0
    2.4836    1.2014   -0.1214 C   0  0  0  0  0  0  0  0  0  0  0  0
    1.6378    0.1416   -0.7330 C   0  0  1  0  0  0  0  0  0  0  0  0
    2.1270   -1.0979   -0.3072 O   0  0  0  0  0  0  0  0  0  0  0  0
    0.1852    0.2041   -0.5245 C   0  0  1  0  0  0  0  0  0  0  0  0
   -0.4450   -0.8094   -1.2541 O   0  0  0  0  0  0  0  0  0  0  0  0
   -1.7754   -0.6650   -0.8625 C   0  0  1  0  0  0  0  0  0  0  0  0
   -2.5702   -1.7018   -1.3399 O   0  0  0  0  0  0  0  0  0  0  0  0
   -1.6232   -0.7338    0.6390 C   0  0  2  0  0  0  0  0  0  0  0  0
   -2.7051   -0.1978    1.3118 O   0  0  0  0  0  0  0  0  0  0  0  0
   -0.3671    0.1315    0.8240 C   0  0  2  0  0  0  0  0  0  0  0  0
   -0.7524    1.3700    1.3426 O   0  0  0  0  0  0  0  0  0  0  0  0
    3.1006    0.5215    1.6519 H   0  0  0  0  0  0  0  0  0  0  0  0
    2.2154    2.2349   -0.4002 H   0  0  0  0  0  0  0  0  0  0  0  0
    3.5512    1.0919   -0.4097 H   0  0  0  0  0  0  0  0  0  0  0  0
    1.8399    0.1546   -1.8311 H   0  0  0  0  0  0  0  0  0  0  0  0
    1.8528   -1.8067   -0.9255 H   0  0  0  0  0  0  0  0  0  0  0  0
   -0.2090    1.1512   -0.9993 H   0  0  0  0  0  0  0  0  0  0  0  0
   -2.1310    0.3172   -1.2075 H   0  0  0  0  0  0  0  0  0  0  0  0
   -3.4520   -1.6059   -0.8667 H   0  0  0  0  0  0  0  0  0  0  0  0
   -1.4172   -1.7881    0.8956 H   0  0  0  0  0  0  0  0  0  0  0  0
   -3.2963   -0.9368    1.5959 H   0  0  0  0  0  0  0  0  0  0  0  0
    0.2056   -0.3890    1.5964 H   0  0  0  0  0  0  0  0  0  0  0  0
   -0.9168    2.0477    0.6471 H   0  0  0  0  0  0  0  0  0  0  0  0
  1  2  1  0
  2  3  1  0
  3  4  1  0
  3  5  1  0
  5  6  1  0
  6  7  1  0
  7  8  1  0
  7  9  1  0
  9 10  1  0
  9 11  1  0
 11 12  1  0
 11  5  1  0
  1 13  1  0
  2 14  1  0
  2 15  1  0
  3 16  1  6
  4 17  1  0
  5 18  1  6
  7 19  1  1
  8 20  1  0
  9 21  1  1
 10 22  1  0
 11 23  1  1
 12 24  1  0
M  END
$$$$

     RDKit          3D

 24 24  0  0  0  0  0  0  0  0999 V2000
    2.1256   -0.4185   -1.8009 O   0  0  0  0  0  0  0  0  0  0  0  0
    2.3506   -0.4916   -0.4285 C   0  0  0  0  0  0  0  0  0  0  0  0
    1.6714    0.6093    0.3277 C   0  0  1  0  0  0  0  0  0  0  0  0
    2.1210    1.8607   -0.0897 O   0  0  0  0  0  0  0  0  0  0  0  0
    0.1876    0.5924    0.2321 C   0  0  1  0  0  0  0  0  0  0  0  0
   -0.3108    0.8094   -1.0294 O   0  0  0  0  0  0  0  0  0  0  0  0
   -1.6847    0.6976   -0.8187 C   0  0  1  0  0  0  0  0  0  0  0  0
   -2.3861    0.6054   -2.0171 O   0  0  0  0  0  0  0  0  0  0  0  0
   -1.8490   -0.5488    0.0254 C   0  0  2  0  0  0  0  0  0  0  0  0
   -2.7363   -0.3025    1.0826 O   0  0  0  0  0  0  0  0  0  0  0  0
   -0.4473   -0.7040    0.6320 C   0  0  2  0  0  0  0  0  0  0  0  0
   -0.5210   -0.7520    2.0171 O   0  0  0  0  0  0  0  0  0  0  0  0
    2.8137   -0.9853   -2.2286 H   0  0  0  0  0  0  0  0  0  0  0  0
    2.1098   -1.4641   -0.0014 H   0  0  0  0  0  0  0  0  0  0  0  0
    3.4608   -0.3239   -0.3005 H   0  0  0  0  0  0  0  0  0  0  0  0
    1.9519    0.5028    1.3949 H   0  0  0  0  0  0  0  0  0  0  0  0
    2.2459    2.4801    0.6964 H   0  0  0  0  0  0  0  0  0  0  0  0
   -0.2115    1.3848    0.8947 H   0  0  0  0  0  0  0  0  0  0  0  0
   -1.9975    1.6071   -0.2532 H   0  0  0  0  0  0  0  0  0  0  0  0
   -3.3498    0.6225   -1.7754 H   0  0  0  0  0  0  0  0  0  0  0  0
   -2.1430   -1.4320   -0.5563 H   0  0  0  0  0  0  0  0  0  0  0  0
   -3.0803   -1.1467    1.4306 H   0  0  0  0  0  0  0  0  0  0  0  0
    0.0796   -1.5455    0.1794 H   0  0  0  0  0  0  0  0  0  0  0  0
   -0.4005   -1.6573    2.3866 H   0  0  0  0  0  0  0  0  0  0  0  0
  1  2  1  0
  2  3  1  0
  3  4  1  0
  3  5  1  0
  5  6  1  0
  6  7  1  0
  7  8  1  0
  7  9  1  0
  9 10  1  0
  9 11  1  0
 11 12  1  0
 11  5  1  0
  1 13  1  0
  2 14  1  0
  2 15  1  0
  3 16  1  1
  4 17  1  0
  5 18  1  1
  7 19  1  1
  8 20  1  0
  9 21  1  6
 10 22  1  0
 11 23  1  6
 12 24  1  0
M  END
$$$$

     RDKit          3D

 24 24  0  0  0  0  0  0  0  0999 V2000
   -3.1453    0.2711    0.1223 O   0  0  0  0  0  0  0  0  0  0  0  0
   -2.2924   -0.1696    1.1051 C   0  0  0  0  0  0  0  0  0  0  0  0
   -1.1578   -0.9243    0.4575 C   0  0  1  0  0  0  0  0  0  0  0  0
   -1.6946   -1.9946   -0.2354 O   0  0  0  0  0  0  0  0  0  0  0  0
   -0.4125    0.0296   -0.4438 C   0  0  1  0  0  0  0  0  0  0  0  0
    0.0820    1.0553    0.3334 O   0  0  0  0  0  0  0  0  0  0  0  0
    1.4442    0.9668    0.3892 C   0  0  1  0  0  0  0  0  0  0  0  0
    1.9953    1.3649    1.5919 O   0  0  0  0  0  0  0  0  0  0  0  0
    1.7854   -0.4673    0.0411 C   0  0  2  0  0  0  0  0  0  0  0  0
    3.0741   -0.6482   -0.3657 O   0  0  0  0  0  0  0  0  0  0  0  0
    0.7742   -0.6138   -1.1034 C   0  0  2  0  0  0  0  0  0  0  0  0
    1.2134    0.2244   -2.1155 O   0  0  0  0  0  0  0  0  0  0  0  0
   -3.1189    1.2494   -0.0199 H   0  0  0  0  0  0  0  0  0  0  0  0
   -1.8699    0.6932    1.6598 H   0  0  0  0  0  0  0  0  0  0  0  0
   -2.8534   -0.7839    1.8302 H   0  0  0  0  0  0  0  0  0  0  0  0
   -0.5241   -1.3373    1.2661 H   0  0  0  0  0  0  0  0  0  0  0  0
   -2.2003   -1.6653   -1.0361 H   0  0  0  0  0  0  0  0  0  0  0  0
   -1.1418    0.4383   -1.1671 H   0  0  0  0  0  0  0  0  0  0  0  0
    1.8577    1.5974   -0.4391 H   0  0  0  0  0  0  0  0  0  0  0  0
    1.9038    2.3438    1.6636 H   0  0  0  0  0  0  0  0  0  0  0  0
    1.5326   -1.1405    0.8794 H   0  0  0  0  0  0  0  0  0  0  0  0
    3.4869    0.1406   -0.7760 H   0  0  0  0  0  0  0  0  0  0  0  0
    0.6286   -1.6451   -1.4016 H   0  0  0  0  0  0  0  0  0  0  0  0
    0.6328    1.0150   -2.2362 H   0  0  0  0  0  0  0  0  0  0  0  0
  1  2  1  0
  2  3  1  0
  3  4  1  0
  3  5  1  0
  5  6  1  0
  6  7  1  0
  7  8  1  0
  7  9  1  0
  9 10  1  0
  9 11  1  0
 11 12  1  0
 11  5  1  0
  1 13  1  0
  2 14  1  0
  2 15  1  0
  3 16  1  1
  4 17  1  0
  5 18  1  6
  7 19  1  6
  8 20  1  0
  9 21  1  1
 10 22  1  0
 11 23  1  6
 12 24  1  0
M  END
$$$$
