
     RDKit          3D

 26 26  0  0  0  0  0  0  0  0999 V2000
    5.1093    0.8596    0.0516 C   0  0  0  0  0  0  0  0  0  0  0  0
    3.9873    0.0527   -0.3778 N   0  0  0  0  0  0  0  0  0  0  0  0
    2.6564    0.2821    0.1283 C   0  0  0  0  0  0  0  0  0  0  0  0
    2.5030    1.2038    0.9489 O   0  0  0  0  0  0  0  0  0  0  0  0
    1.5445   -0.5862   -0.3539 C   0  0  0  0  0  0  0  0  0  0  0  0
    0.2858   -0.0792    0.2562 C   0  0  0  0  0  0  0  0  0  0  0  0
   -0.8840   -0.8566   -0.1561 N   0  0  0  0  0  0  0  0  0  0  0  0
   -2.1828   -0.3946    0.2623 C   0  0  0  0  0  0  0  0  0  0  0  0
   -2.4900    0.7827    0.6718 N   0  0  0  0  0  0  0  0  0  0  0  0
   -3.8932    0.8894    1.0077 C   0  0  0  0  0  0  0  0  0  0  0  0
   -4.4846   -0.2707    0.2248 C   0  0  0  0  0  0  0  0  0  0  0  0
   -3.3675   -1.2052    0.2836 N   0  0  0  0  0  0  0  0  0  0  0  0
    5.4159    0.5655    1.0773 H   0  0  0  0  0  0  0  0  0  0  0  0
    5.9225    0.7470   -0.7060 H   0  0  0  0  0  0  0  0  0  0  0  0
    4.7702    1.9206    0.1133 H   0  0  0  0  0  0  0  0  0  0  0  0
    4.1456   -0.7280   -1.0864 H   0  0  0  0  0  0  0  0  0  0  0  0
    1.5024   -0.4621   -1.4451 H   0  0  0  0  0  0  0  0  0  0  0  0
    1.6914   -1.6337   -0.0693 H   0  0  0  0  0  0  0  0  0  0  0  0
    0.0841    0.9675   -0.0168 H   0  0  0  0  0  0  0  0  0  0  0  0
    0.3115   -0.1377    1.3884 H   0  0  0  0  0  0  0  0  0  0  0  0
   -0.8087   -1.7205   -0.7353 H   0  0  0  0  0  0  0  0  0  0  0  0
   -4.1154    0.8403    2.0844 H   0  0  0  0  0  0  0  0  0  0  0  0
   -4.3229    1.8565    0.6356 H   0  0  0  0  0  0  0  0  0  0  0  0
   -4.5735    0.0306   -0.8267 H   0  0  0  0  0  0  0  0  0  0  0  0
   -5.4174   -0.6682    0.6747 H   0  0  0  0  0  0  0  0  0  0  0  0
   -3.3902   -2.2555    0.3296 H   0  0  0  0  0  0  0  0  0  0  0  0
  1  2  1  0
  2  3  1  0
  3  4  2  0
  3  5  1  0
  5  6  1  0
  6  7  1  0
  7  8  1  0
  8  9  2  0
  9 10  1  0
 10 11  1  0
 11 12  1  0
 12  8  1  0
  1 13  1  0
  1 14  1  0
  1 15  1  0
  2 16  1  0
  5 17  1  0
  5 18  1  0
  6 19  1  0
  6 20  1  0
  7 21  1  0
 10 22  1  0
 10 23  1  0
 11 24  1  0
 11 25  1  0
 12 26  1  0
M  END
$$$$

     RDKit          3D

 26 26  0  0  0  0  0  0  0  0999 V2000
    4.6346    1.2708    0.2256 C   0  0  0  0  0  0  0  0  0  0  0  0
    3.3105    1.0224    0.7343 N   0  0  0  0  0  0  0  0  0  0  0  0
    2.4458    0.0504    0.1619 C   0  0  0  0  0  0  0  0  0  0  0  0
    2.9010   -0.5920   -0.8263 O   0  0  0  0  0  0  0  0  0  0  0  0
    1.0740   -0.1992    0.6982 C   0  0  0  0  0  0  0  0  0  0  0  0
    0.4496   -1.2834   -0.1408 C   0  0  0  0  0  0  0  0  0  0  0  0
   -0.8732   -1.6422    0.2495 N   0  0  0  0  0  0  0  0  0  0  0  0
   -1.9714   -0.7548    0.0938 C   0  0  0  0  0  0  0  0  0  0  0  0
   -1.8526    0.5213    0.0617 N   0  0  0  0  0  0  0  0  0  0  0  0
   -3.1573    1.1065   -0.1061 C   0  0  0  0  0  0  0  0  0  0  0  0
   -4.1083   -0.0165   -0.4356 C   0  0  0  0  0  0  0  0  0  0  0  0
   -3.3191   -1.1740   -0.0453 N   0  0  0  0  0  0  0  0  0  0  0  0
    5.4395    0.8386    0.8360 H   0  0  0  0  0  0  0  0  0  0  0  0
    4.8212    2.3760    0.2262 H   0  0  0  0  0  0  0  0  0  0  0  0
    4.7385    0.9537   -0.8437 H   0  0  0  0  0  0  0  0  0  0  0  0
    2.9808    1.5720    1.5444 H   0  0  0  0  0  0  0  0  0  0  0  0
    0.5419    0.7711    0.6197 H   0  0  0  0  0  0  0  0  0  0  0  0
    1.2054   -0.5590    1.7299 H   0  0  0  0  0  0  0  0  0  0  0  0
    0.3909   -0.8804   -1.1753 H   0  0  0  0  0  0  0  0  0  0  0  0
    1.1222   -2.1506   -0.1163 H   0  0  0  0  0  0  0  0  0  0  0  0
   -1.0078   -2.6118    0.6665 H   0  0  0  0  0  0  0  0  0  0  0  0
   -3.4651    1.5896    0.8614 H   0  0  0  0  0  0  0  0  0  0  0  0
   -3.1491    1.8761   -0.9307 H   0  0  0  0  0  0  0  0  0  0  0  0
   -5.0180    0.0770    0.2268 H   0  0  0  0  0  0  0  0  0  0  0  0
   -4.3911   -0.0466   -1.5130 H   0  0  0  0  0  0  0  0  0  0  0  0
   -3.7427   -2.1151    0.0885 H   0  0  0  0  0  0  0  0  0  0  0  0
  1  2  1  0
  2  3  1  0
  3  4  2  0
  3  5  1  0
  5  6  1  0
  6  7  1  0
  7  8  1  0
  8  9  2  0
  9 10  1  0
 10 11  1  0
 11 12  1  0
 12  8  1  0
  1 13  1  0
  1 14  1  0
  1 15  1  0
  2 16  1  0
  5 17  1  0
  5 18  1  0
  6 19  1  0
  6 20  1  0
  7 21  1  0
 10 22  1  0
 10 23  1  0
 11 24  1  0
 11 25  1  0
 12 26  1  0
M  END
$$$$

     RDKit          3D

 26 26  0  0  0  0  0  0  0  0999 V2000
    4.9792   -0.8881    0.2717 C   0  0  0  0  0  0  0  0  0  0  0  0
    3.9826    0.1107   -0.1339 N   0  0  0  0  0  0  0  0  0  0  0  0
    2.6285   -0.0669    0.2609 C   0  0  0  0  0  0  0  0  0  0  0  0
    2.3713   -1.0928    0.9452 O   0  0  0  0  0  0  0  0  0  0  0  0
    1.5594    0.9092   -0.1180 C   0  0  0  0  0  0  0  0  0  0  0  0
    0.2522    0.2704    0.2338 C   0  0  0  0  0  0  0  0  0  0  0  0
   -0.9122    1.0608   -0.0625 N   0  0  0  0  0  0  0  0  0  0  0  0
   -2.2059    0.4222   -0.0658 C   0  0  0  0  0  0  0  0  0  0  0  0
   -2.3282   -0.7785   -0.5190 N   0  0  0  0  0  0  0  0  0  0  0  0
   -3.6938   -1.2366   -0.4362 C   0  0  0  0  0  0  0  0  0  0  0  0
   -4.4647    0.0177   -0.1353 C   0  0  0  0  0  0  0  0  0  0  0  0
   -3.4572    0.9188    0.3815 N   0  0  0  0  0  0  0  0  0  0  0  0
    5.5442   -1.1958   -0.6514 H   0  0  0  0  0  0  0  0  0  0  0  0
    5.6717   -0.4118    0.9884 H   0  0  0  0  0  0  0  0  0  0  0  0
    4.4719   -1.7321    0.7401 H   0  0  0  0  0  0  0  0  0  0  0  0
    4.2451    0.9483   -0.7151 H   0  0  0  0  0  0  0  0  0  0  0  0
    1.6778    1.8693    0.3927 H   0  0  0  0  0  0  0  0  0  0  0  0
    1.6082    1.0866   -1.2322 H   0  0  0  0  0  0  0  0  0  0  0  0
    0.2951    0.0209    1.3280 H   0  0  0  0  0  0  0  0  0  0  0  0
    0.2011   -0.7093   -0.2894 H   0  0  0  0  0  0  0  0  0  0  0  0
   -0.9122    2.0738   -0.2697 H   0  0  0  0  0  0  0  0  0  0  0  0
   -3.7650   -1.9311    0.4208 H   0  0  0  0  0  0  0  0  0  0  0  0
   -3.9922   -1.7272   -1.3960 H   0  0  0  0  0  0  0  0  0  0  0  0
   -4.8854    0.4626   -1.0810 H   0  0  0  0  0  0  0  0  0  0  0  0
   -5.2894   -0.1931    0.5755 H   0  0  0  0  0  0  0  0  0  0  0  0
   -3.5819    1.7921    0.9811 H   0  0  0  0  0  0  0  0  0  0  0  0
  1  2  1  0
  2  3  1  0
  3  4  2  0
  3  5  1  0
  5  6  1  0
  6  7  1  0
  7  8  1  0
  8  9  2  0
  9 10  1  0
 10 11  1  0
 11 12  1  0
 12  8  1  0
  1 13  1  0
  1 14  1  0
  1 15  1  0
  2 16  1  0
  5 17  1  0
  5 18  1  0
  6 19  1  0
  6 20  1  0
  7 21  1  0
 10 22  1  0
 10 23  1  0
 11 24  1  0
 11 25  1  0
 12 26  1  0
M  END
$$$$

     RDKit          3D

 26 26  0  0  0  0  0  0  0  0999 V2000
    4.1415    0.5592   -0.8841 C   0  0  0  0  0  0  0  0  0  0  0  0
    3.1313   -0.4266   -0.6358 N   0  0  0  0  0  0  0  0  0  0  0  0
    2.1094   -0.3075    0.3398 C   0  0  0  0  0  0  0  0  0  0  0  0
    2.0770    0.7307    1.0422 O   0  0  0  0  0  0  0  0  0  0  0  0
    1.0722   -1.3486    0.5768 C   0  0  0  0  0  0  0  0  0  0  0  0
    0.1447   -0.9680    1.6440 C   0  0  0  0  0  0  0  0  0  0  0  0
   -0.6268    0.1974    1.5299 N   0  0  0  0  0  0  0  0  0  0  0  0
   -1.6846    0.3826    0.5890 C   0  0  0  0  0  0  0  0  0  0  0  0
   -1.6668   -0.1346   -0.5626 N   0  0  0  0  0  0  0  0  0  0  0  0
   -2.8124    0.1586   -1.3705 C   0  0  0  0  0  0  0  0  0  0  0  0
   -3.7870    0.7717   -0.3651 C   0  0  0  0  0  0  0  0  0  0  0  0
   -2.8841    1.1161    0.7133 N   0  0  0  0  0  0  0  0  0  0  0  0
    3.7976    1.5985   -0.6971 H   0  0  0  0  0  0  0  0  0  0  0  0
    5.0076    0.3855   -0.2096 H   0  0  0  0  0  0  0  0  0  0  0  0
    4.5246    0.5494   -1.9217 H   0  0  0  0  0  0  0  0  0  0  0  0
    3.1152   -1.3216   -1.1998 H   0  0  0  0  0  0  0  0  0  0  0  0
    1.6479   -2.2546    0.9371 H   0  0  0  0  0  0  0  0  0  0  0  0
    0.6716   -1.6318   -0.3898 H   0  0  0  0  0  0  0  0  0  0  0  0
   -0.5773   -1.8303    1.8040 H   0  0  0  0  0  0  0  0  0  0  0  0
    0.7134   -0.9418    2.6062 H   0  0  0  0  0  0  0  0  0  0  0  0
   -0.4370    1.0063    2.1710 H   0  0  0  0  0  0  0  0  0  0  0  0
   -3.2169   -0.7631   -1.8314 H   0  0  0  0  0  0  0  0  0  0  0  0
   -2.6083    0.9656   -2.1204 H   0  0  0  0  0  0  0  0  0  0  0  0
   -4.5287    0.0036   -0.0631 H   0  0  0  0  0  0  0  0  0  0  0  0
   -4.2358    1.7025   -0.7322 H   0  0  0  0  0  0  0  0  0  0  0  0
   -3.0885    1.8009    1.4668 H   0  0  0  0  0  0  0  0  0  0  0  0
  1  2  1  0
  2  3  1  0
  3  4  2  0
  3  5  1  0
  5  6  1  0
  6  7  1  0
  7  8  1  0
  8  9  2  0
  9 10  1  0
 10 11  1  0
 11 12  1  0
 12  8  1  0
  1 13  1  0
  1 14  1  0
  1 15  1  0
  2 16  1  0
  5 17  1  0
  5 18  1  0
  6 19  1  0
  6 20  1  0
  7 21  1  0
 10 22  1  0
 10 23  1  0
 11 24  1  0
 11 25  1  0
 12 26  1  0
M  END
$$$$

     RDKit          3D

 26 26  0  0  0  0  0  0  0  0999 V2000
    2.9995    1.8441   -0.0562 C   0  0  0  0  0  0  0  0  0  0  0  0
    2.8042    0.4203   -0.1924 N   0  0  0  0  0  0  0  0  0  0  0  0
    1.5527   -0.1990    0.2131 C   0  0  0  0  0  0  0  0  0  0  0  0
    0.7199    0.5991    0.6650 O   0  0  0  0  0  0  0  0  0  0  0  0
    1.4192   -1.6336    0.0507 C   0  0  0  0  0  0  0  0  0  0  0  0
    0.1294   -2.2929    0.4019 C   0  0  0  0  0  0  0  0  0  0  0  0
   -1.0321   -1.8936   -0.3323 N   0  0  0  0  0  0  0  0  0  0  0  0
   -1.6836   -0.6538   -0.1258 C   0  0  0  0  0  0  0  0  0  0  0  0
   -2.0694   -0.2377    1.0450 N   0  0  0  0  0  0  0  0  0  0  0  0
   -2.7046    1.0540    0.9661 C   0  0  0  0  0  0  0  0  0  0  0  0
   -2.4279    1.4888   -0.4492 C   0  0  0  0  0  0  0  0  0  0  0  0
   -2.0428    0.2786   -1.1357 N   0  0  0  0  0  0  0  0  0  0  0  0
    2.7365    2.4226   -0.9669 H   0  0  0  0  0  0  0  0  0  0  0  0
    2.4520    2.2189    0.8385 H   0  0  0  0  0  0  0  0  0  0  0  0
    4.0834    2.0760    0.1320 H   0  0  0  0  0  0  0  0  0  0  0  0
    3.5491   -0.1660   -0.5768 H   0  0  0  0  0  0  0  0  0  0  0  0
    1.6902   -1.9270   -1.0278 H   0  0  0  0  0  0  0  0  0  0  0  0
    2.2378   -2.1954    0.6290 H   0  0  0  0  0  0  0  0  0  0  0  0
   -0.0663   -2.2580    1.5122 H   0  0  0  0  0  0  0  0  0  0  0  0
    0.2301   -3.4139    0.2226 H   0  0  0  0  0  0  0  0  0  0  0  0
   -1.4397   -2.5492   -1.1010 H   0  0  0  0  0  0  0  0  0  0  0  0
   -3.8034    0.9826    1.0984 H   0  0  0  0  0  0  0  0  0  0  0  0
   -2.2845    1.7624    1.7234 H   0  0  0  0  0  0  0  0  0  0  0  0
   -3.3584    1.8690   -0.9214 H   0  0  0  0  0  0  0  0  0  0  0  0
   -1.6564    2.2885   -0.5247 H   0  0  0  0  0  0  0  0  0  0  0  0
   -2.0349    0.1151   -2.1845 H   0  0  0  0  0  0  0  0  0  0  0  0
  1  2  1  0
  2  3  1  0
  3  4  2  0
  3  5  1  0
  5  6  1  0
  6  7  1  0
  7  8  1  0
  8  9  2  0
  9 10  1  0
 10 11  1  0
 11 12  1  0
 12  8  1  0
  1 13  1  0
  1 14  1  0
  1 15  1  0
  2 16  1  0
  5 17  1  0
  5 18  1  0
  6 19  1  0
  6 20  1  0
  7 21  1  0
 10 22  1  0
 10 23  1  0
 11 24  1  0
 11 25  1  0
 12 26  1  0
M  END
$$$$

     RDKit          3D

 26 26  0  0  0  0  0  0  0  0999 V2000
    4.7479    0.8344    0.7028 C   0  0  0  0  0  0  0  0  0  0  0  0
    3.4018    1.0532    0.1748 N   0  0  0  0  0  0  0  0  0  0  0  0
    2.4853   -0.0083    0.0025 C   0  0  0  0  0  0  0  0  0  0  0  0
    2.9038   -1.1621    0.3355 O   0  0  0  0  0  0  0  0  0  0  0  0
    1.0998    0.1886   -0.5380 C   0  0  0  0  0  0  0  0  0  0  0  0
    0.4323   -1.1541   -0.5697 C   0  0  0  0  0  0  0  0  0  0  0  0
   -0.8987   -1.1660   -1.0574 N   0  0  0  0  0  0  0  0  0  0  0  0
   -2.0187   -0.5869   -0.3987 C   0  0  0  0  0  0  0  0  0  0  0  0
   -1.9175    0.3938    0.4223 N   0  0  0  0  0  0  0  0  0  0  0  0
   -3.2066    0.7846    0.9452 C   0  0  0  0  0  0  0  0  0  0  0  0
   -4.2208    0.0783    0.0723 C   0  0  0  0  0  0  0  0  0  0  0  0
   -3.3800   -0.9687   -0.5223 N   0  0  0  0  0  0  0  0  0  0  0  0
    5.1854    1.7832    1.0655 H   0  0  0  0  0  0  0  0  0  0  0  0
    4.7104    0.0870    1.5063 H   0  0  0  0  0  0  0  0  0  0  0  0
    5.4267    0.4676   -0.1143 H   0  0  0  0  0  0  0  0  0  0  0  0
    3.1085    2.0290   -0.0848 H   0  0  0  0  0  0  0  0  0  0  0  0
    1.2112    0.6685   -1.5156 H   0  0  0  0  0  0  0  0  0  0  0  0
    0.5163    0.8349    0.1577 H   0  0  0  0  0  0  0  0  0  0  0  0
    1.0608   -1.8229   -1.1858 H   0  0  0  0  0  0  0  0  0  0  0  0
    0.5051   -1.5837    0.4730 H   0  0  0  0  0  0  0  0  0  0  0  0
   -1.0818   -1.6342   -1.9748 H   0  0  0  0  0  0  0  0  0  0  0  0
   -3.3672    0.4571    1.9988 H   0  0  0  0  0  0  0  0  0  0  0  0
   -3.4062    1.8701    0.8275 H   0  0  0  0  0  0  0  0  0  0  0  0
   -5.0629   -0.3220    0.6262 H   0  0  0  0  0  0  0  0  0  0  0  0
   -4.5236    0.7225   -0.7967 H   0  0  0  0  0  0  0  0  0  0  0  0
   -3.7113   -1.8440   -0.9620 H   0  0  0  0  0  0  0  0  0  0  0  0
  1  2  1  0
  2  3  1  0
  3  4  2  0
  3  5  1  0
  5  6  1  0
  6  7  1  0
  7  8  1  0
  8  9  2  0
  9 10  1  0
 10 11  1  0
 11 12  1  0
 12  8  1  0
  1 13  1  0
  1 14  1  0
  1 15  1  0
  2 16  1  0
  5 17  1  0
  5 18  1  0
  6 19  1  0
  6 20  1  0
  7 21  1  0
 10 22  1  0
 10 23  1  0
 11 24  1  0
 11 25  1  0
 12 26  1  0
M  END
$$$$

     RDKit          3D

 26 26  0  0  0  0  0  0  0  0999 V2000
    4.7424   -0.4658    0.8246 C   0  0  0  0  0  0  0  0  0  0  0  0
    3.3553   -0.8704    0.5401 N   0  0  0  0  0  0  0  0  0  0  0  0
    2.4783    0.0073   -0.1075 C   0  0  0  0  0  0  0  0  0  0  0  0
    2.8802    1.1434   -0.4465 O   0  0  0  0  0  0  0  0  0  0  0  0
    1.0884   -0.3885   -0.3980 C   0  0  0  0  0  0  0  0  0  0  0  0
    0.4045    0.7641   -1.0786 C   0  0  0  0  0  0  0  0  0  0  0  0
   -0.9597    0.5430   -1.4312 N   0  0  0  0  0  0  0  0  0  0  0  0
   -2.0322    0.4108   -0.5060 C   0  0  0  0  0  0  0  0  0  0  0  0
   -1.9158    0.5319    0.7739 N   0  0  0  0  0  0  0  0  0  0  0  0
   -3.1734    0.3470    1.4465 C   0  0  0  0  0  0  0  0  0  0  0  0
   -4.0557   -0.2477    0.3801 C   0  0  0  0  0  0  0  0  0  0  0  0
   -3.3829    0.1275   -0.8435 N   0  0  0  0  0  0  0  0  0  0  0  0
    4.7946    0.6609    0.8295 H   0  0  0  0  0  0  0  0  0  0  0  0
    5.0171   -0.8823    1.8176 H   0  0  0  0  0  0  0  0  0  0  0  0
    5.4240   -0.8939    0.0828 H   0  0  0  0  0  0  0  0  0  0  0  0
    3.0813   -1.8420    0.8539 H   0  0  0  0  0  0  0  0  0  0  0  0
    1.1077   -1.2998   -1.0594 H   0  0  0  0  0  0  0  0  0  0  0  0
    0.6125   -0.7024    0.5493 H   0  0  0  0  0  0  0  0  0  0  0  0
    1.0032    0.9778   -1.9986 H   0  0  0  0  0  0  0  0  0  0  0  0
    0.5432    1.6388   -0.4001 H   0  0  0  0  0  0  0  0  0  0  0  0
   -1.2203    0.4657   -2.4540 H   0  0  0  0  0  0  0  0  0  0  0  0
   -3.0863   -0.3618    2.3120 H   0  0  0  0  0  0  0  0  0  0  0  0
   -3.6195    1.3190    1.7721 H   0  0  0  0  0  0  0  0  0  0  0  0
   -5.0852    0.1775    0.4252 H   0  0  0  0  0  0  0  0  0  0  0  0
   -4.1918   -1.3413    0.4941 H   0  0  0  0  0  0  0  0  0  0  0  0
   -3.8101    0.1810   -1.8007 H   0  0  0  0  0  0  0  0  0  0  0  0
  1  2  1  0
  2  3  1  0
  3  4  2  0
  3  5  1  0
  5  6  1  0
  6  7  1  0
  7  8  1  0
  8  9  2  0
  9 10  1  0
 10 11  1  0
 11 12  1  0
 12  8  1  0
  1 13  1  0
  1 14  1  0
  1 15  1  0
  2 16  1  0
  5 17  1  0
  5 18  1  0
  6 19  1  0
  6 20  1  0
  7 21  1  0
 10 22  1  0
 10 23  1  0
 11 24  1  0
 11 25  1  0
 12 26  1  0
M  END
$$$$

     RDKit          3D

 26 26  0  0  0  0  0  0  0  0999 V2000
   -4.7107   -0.0284   -0.7637 C   0  0  0  0  0  0  0  0  0  0  0  0
   -3.3913   -0.5813   -0.5927 N   0  0  0  0  0  0  0  0  0  0  0  0
   -2.4494    0.1459    0.1870 C   0  0  0  0  0  0  0  0  0  0  0  0
   -2.8203    1.2362    0.6868 O   0  0  0  0  0  0  0  0  0  0  0  0
   -1.0687   -0.2950    0.4473 C   0  0  0  0  0  0  0  0  0  0  0  0
   -0.3044    0.6687    1.3119 C   0  0  0  0  0  0  0  0  0  0  0  0
    1.0308    0.1436    1.5041 N   0  0  0  0  0  0  0  0  0  0  0  0
    1.9958    0.0587    0.4740 C   0  0  0  0  0  0  0  0  0  0  0  0
    2.0310    0.8377   -0.5483 N   0  0  0  0  0  0  0  0  0  0  0  0
    3.1012    0.5424   -1.4379 C   0  0  0  0  0  0  0  0  0  0  0  0
    4.0520   -0.3039   -0.5724 C   0  0  0  0  0  0  0  0  0  0  0  0
    3.0889   -0.8534    0.3507 N   0  0  0  0  0  0  0  0  0  0  0  0
   -5.0257   -0.2639   -1.8243 H   0  0  0  0  0  0  0  0  0  0  0  0
   -4.6446    1.0614   -0.6284 H   0  0  0  0  0  0  0  0  0  0  0  0
   -5.4787   -0.5054   -0.1399 H   0  0  0  0  0  0  0  0  0  0  0  0
   -3.0925   -1.5079   -1.0218 H   0  0  0  0  0  0  0  0  0  0  0  0
   -0.5420   -0.3806   -0.5174 H   0  0  0  0  0  0  0  0  0  0  0  0
   -1.1191   -1.2677    0.9755 H   0  0  0  0  0  0  0  0  0  0  0  0
   -0.7831    0.9062    2.2682 H   0  0  0  0  0  0  0  0  0  0  0  0
   -0.1582    1.6439    0.7740 H   0  0  0  0  0  0  0  0  0  0  0  0
    1.3458   -0.2119    2.4535 H   0  0  0  0  0  0  0  0  0  0  0  0
    3.6527    1.4236   -1.8156 H   0  0  0  0  0  0  0  0  0  0  0  0
    2.7677   -0.0571   -2.3235 H   0  0  0  0  0  0  0  0  0  0  0  0
    4.7863    0.3728   -0.0713 H   0  0  0  0  0  0  0  0  0  0  0  0
    4.5633   -1.0310   -1.2036 H   0  0  0  0  0  0  0  0  0  0  0  0
    3.1732   -1.7536    0.8421 H   0  0  0  0  0  0  0  0  0  0  0  0
  1  2  1  0
  2  3  1  0
  3  4  2  0
  3  5  1  0
  5  6  1  0
  6  7  1  0
  7  8  1  0
  8  9  2  0
  9 10  1  0
 10 11  1  0
 11 12  1  0
 12  8  1  0
  1 13  1  0
  1 14  1  0
  1 15  1  0
  2 16  1  0
  5 17  1  0
  5 18  1  0
  6 19  1  0
  6 20  1  0
  7 21  1  0
 10 22  1  0
 10 23  1  0
 11 24  1  0
 11 25  1  0
 12 26  1  0
M  END
$$$$
