
     RDKit          3D

 21 21  0  0  0  0  0  0  0  0999 V2000
   -3.1427   -0.0553    0.1269 O   0  0  0  0  0  0  0  0  0  0  0  0
   -1.9742   -0.3393    0.8664 C   0  0  0  0  0  0  0  0  0  0  0  0
   -0.8847   -0.7039   -0.1081 C   0  0  1  0  0  0  0  0  0  0  0  0
   -0.4665    0.2938   -1.1423 C   0  0  0  0  0  0  0  0  0  0  0  0
    0.4560   -0.1220   -0.0433 C   0  0  0  0  0  0  0  0  0  0  0  0
    0.8337    0.9589    0.9214 C   0  0  0  0  0  0  0  0  0  0  0  0
    0.0677    2.1078    0.7485 O   0  0  0  0  0  0  0  0  0  0  0  0
    1.6108   -1.0737   -0.3655 C   0  0  0  0  0  0  0  0  0  0  0  0
    2.8334   -0.4524   -0.2829 O   0  0  0  0  0  0  0  0  0  0  0  0
   -2.8690    0.3204   -0.7373 H   0  0  0  0  0  0  0  0  0  0  0  0
   -1.7193    0.5322    1.4907 H   0  0  0  0  0  0  0  0  0  0  0  0
   -2.2212   -1.2468    1.4604 H   0  0  0  0  0  0  0  0  0  0  0  0
   -0.9897   -1.7425   -0.5050 H   0  0  0  0  0  0  0  0  0  0  0  0
   -0.1941   -0.0039   -2.1590 H   0  0  0  0  0  0  0  0  0  0  0  0
   -0.9551    1.2854   -1.0607 H   0  0  0  0  0  0  0  0  0  0  0  0
    1.8918    1.2610    0.6707 H   0  0  0  0  0  0  0  0  0  0  0  0
    0.8369    0.6270    1.9798 H   0  0  0  0  0  0  0  0  0  0  0  0
    0.4762    2.6688    0.0239 H   0  0  0  0  0  0  0  0  0  0  0  0
    1.4287   -1.4344   -1.3916 H   0  0  0  0  0  0  0  0  0  0  0  0
    1.5113   -1.9102    0.3594 H   0  0  0  0  0  0  0  0  0  0  0  0
    3.4700   -0.9711   -0.8525 H   0  0  0  0  0  0  0  0  0  0  0  0
  1  2  1  0
  2  3  1  0
  3  4  1  0
  4  5  1  0
  5  6  1  0
  6  7  1  0
  5  8  1  0
  8  9  1  0
  5  3  1  0
  1 10  1  0
  2 11  1  0
  2 12  1  0
  3 13  1  6
  4 14  1  0
  4 15  1  0
  6 16  1  0
  6 17  1  0
  7 18  1  0
  8 19  1  0
  8 20  1  0
  9 21  1  0
M  END
$$$$

     RDKit          3D

 21 21  0  0  0  0  0  0  0  0999 V2000
    2.5844    1.7967    0.1084 O   0  0  0  0  0  0  0  0  0  0  0  0
    1.8348    0.7877   -0.4763 C   0  0  0  0  0  0  0  0  0  0  0  0
    0.9722    0.0630    0.5359 C   0  0  1  0  0  0  0  0  0  0  0  0
   -0.0483    0.7767    1.3180 C   0  0  0  0  0  0  0  0  0  0  0  0
   -0.4198   -0.2586    0.2839 C   0  0  0  0  0  0  0  0  0  0  0  0
   -0.9183   -1.6140    0.7698 C   0  0  0  0  0  0  0  0  0  0  0  0
   -2.2632   -1.7446    0.4428 O   0  0  0  0  0  0  0  0  0  0  0  0
   -1.2170    0.2992   -0.8616 C   0  0  0  0  0  0  0  0  0  0  0  0
   -0.6831   -0.0216   -2.1008 O   0  0  0  0  0  0  0  0  0  0  0  0
    3.4388    1.3995    0.4658 H   0  0  0  0  0  0  0  0  0  0  0  0
    1.1569    1.1578   -1.2736 H   0  0  0  0  0  0  0  0  0  0  0  0
    2.5383    0.0951   -0.9823 H   0  0  0  0  0  0  0  0  0  0  0  0
    1.5720   -0.6781    1.1291 H   0  0  0  0  0  0  0  0  0  0  0  0
   -0.2868    1.8468    1.1338 H   0  0  0  0  0  0  0  0  0  0  0  0
   -0.2752    0.4724    2.3593 H   0  0  0  0  0  0  0  0  0  0  0  0
   -0.7077   -1.7774    1.8373 H   0  0  0  0  0  0  0  0  0  0  0  0
   -0.3593   -2.4200    0.2221 H   0  0  0  0  0  0  0  0  0  0  0  0
   -2.3110   -2.0975   -0.4792 H   0  0  0  0  0  0  0  0  0  0  0  0
   -1.3054    1.4052   -0.8290 H   0  0  0  0  0  0  0  0  0  0  0  0
   -2.2554   -0.0912   -0.8502 H   0  0  0  0  0  0  0  0  0  0  0  0
   -1.0468    0.6027   -2.7529 H   0  0  0  0  0  0  0  0  0  0  0  0
  1  2  1  0
  2  3  1  0
  3  4  1  0
  4  5  1  0
  5  6  1  0
  6  7  1  0
  5  8  1  0
  8  9  1  0
  5  3  1  0
  1 10  1  0
  2 11  1  0
  2 12  1  0
  3 13  1  1
  4 14  1  0
  4 15  1  0
  6 16  1  0
  6 17  1  0
  7 18  1  0
  8 19  1  0
  8 20  1  0
  9 21  1  0
M  END
$$$$

     RDKit          3D

 21 21  0  0  0  0  0  0  0  0999 V2000
    2.6838    0.1878    1.3603 O   0  0  0  0  0  0  0  0  0  0  0  0
    2.0945   -0.4253    0.2553 C   0  0  0  0  0  0  0  0  0  0  0  0
    1.0024    0.4330   -0.2954 C   0  0  1  0  0  0  0  0  0  0  0  0
    0.3016   -0.1846   -1.5256 C   0  0  0  0  0  0  0  0  0  0  0  0
   -0.4205    0.0954   -0.1985 C   0  0  0  0  0  0  0  0  0  0  0  0
   -0.8950   -1.1406    0.5354 C   0  0  0  0  0  0  0  0  0  0  0  0
   -2.2949   -1.1634    0.4375 O   0  0  0  0  0  0  0  0  0  0  0  0
   -1.4061    1.2436   -0.2477 C   0  0  0  0  0  0  0  0  0  0  0  0
   -1.2002    2.1472    0.7902 O   0  0  0  0  0  0  0  0  0  0  0  0
    2.6019   -0.4315    2.1461 H   0  0  0  0  0  0  0  0  0  0  0  0
    2.8793   -0.5112   -0.5531 H   0  0  0  0  0  0  0  0  0  0  0  0
    1.7583   -1.4564    0.4667 H   0  0  0  0  0  0  0  0  0  0  0  0
    1.2694    1.5136   -0.3832 H   0  0  0  0  0  0  0  0  0  0  0  0
    0.1034    0.4874   -2.3705 H   0  0  0  0  0  0  0  0  0  0  0  0
    0.5139   -1.2311   -1.7679 H   0  0  0  0  0  0  0  0  0  0  0  0
   -0.4905   -2.0653    0.0835 H   0  0  0  0  0  0  0  0  0  0  0  0
   -0.6169   -1.1356    1.6055 H   0  0  0  0  0  0  0  0  0  0  0  0
   -2.6584   -2.0817    0.6130 H   0  0  0  0  0  0  0  0  0  0  0  0
   -1.2836    1.8020   -1.1882 H   0  0  0  0  0  0  0  0  0  0  0  0
   -2.4588    0.8484   -0.2589 H   0  0  0  0  0  0  0  0  0  0  0  0
   -1.4837    3.0681    0.4955 H   0  0  0  0  0  0  0  0  0  0  0  0
  1  2  1  0
  2  3  1  0
  3  4  1  0
  4  5  1  0
  5  6  1  0
  6  7  1  0
  5  8  1  0
  8  9  1  0
  5  3  1  0
  1 10  1  0
  2 11  1  0
  2 12  1  0
  3 13  1  6
  4 14  1  0
  4 15  1  0
  6 16  1  0
  6 17  1  0
  7 18  1  0
  8 19  1  0
  8 20  1  0
  9 21  1  0
M  END
$$$$

     RDKit          3D

 21 21  0  0  0  0  0  0  0  0999 V2000
    2.7908   -1.2264    0.5002 O   0  0  0  0  0  0  0  0  0  0  0  0
    1.7524   -0.4532    1.0680 C   0  0  0  0  0  0  0  0  0  0  0  0
    1.0360    0.2078   -0.0705 C   0  0  1  0  0  0  0  0  0  0  0  0
    0.4261   -0.7604   -1.0733 C   0  0  0  0  0  0  0  0  0  0  0  0
   -0.4178    0.1243   -0.2565 C   0  0  0  0  0  0  0  0  0  0  0  0
   -1.3156   -0.5397    0.7484 C   0  0  0  0  0  0  0  0  0  0  0  0
   -2.6314   -0.4321    0.2451 O   0  0  0  0  0  0  0  0  0  0  0  0
   -1.0528    1.3694   -0.8927 C   0  0  0  0  0  0  0  0  0  0  0  0
   -0.8084    2.4777   -0.0787 O   0  0  0  0  0  0  0  0  0  0  0  0
    3.1664   -0.7452   -0.3004 H   0  0  0  0  0  0  0  0  0  0  0  0
    1.0922   -1.1832    1.5826 H   0  0  0  0  0  0  0  0  0  0  0  0
    2.1767    0.3042    1.7356 H   0  0  0  0  0  0  0  0  0  0  0  0
    1.5966    1.0536   -0.5306 H   0  0  0  0  0  0  0  0  0  0  0  0
    0.6145   -0.5567   -2.1510 H   0  0  0  0  0  0  0  0  0  0  0  0
    0.4564   -1.8426   -0.8396 H   0  0  0  0  0  0  0  0  0  0  0  0
   -1.0412   -1.5899    0.8785 H   0  0  0  0  0  0  0  0  0  0  0  0
   -1.2897    0.0331    1.7095 H   0  0  0  0  0  0  0  0  0  0  0  0
   -2.8393   -1.2650   -0.2463 H   0  0  0  0  0  0  0  0  0  0  0  0
   -2.1362    1.2563   -1.0177 H   0  0  0  0  0  0  0  0  0  0  0  0
   -0.5835    1.5663   -1.8757 H   0  0  0  0  0  0  0  0  0  0  0  0
   -0.9923    2.2015    0.8651 H   0  0  0  0  0  0  0  0  0  0  0  0
  1  2  1  0
  2  3  1  0
  3  4  1  0
  4  5  1  0
  5  6  1  0
  6  7  1  0
  5  8  1  0
  8  9  1  0
  5  3  1  0
  1 10  1  0
  2 11  1  0
  2 12  1  0
  3 13  1  6
  4 14  1  0
  4 15  1  0
  6 16  1  0
  6 17  1  0
  7 18  1  0
  8 19  1  0
  8 20  1  0
  9 21  1  0
M  END
$$$$

     RDKit          3D

 21 21  0  0  0  0  0  0  0  0999 V2000
    2.8582    0.8226    0.5596 O   0  0  0  0  0  0  0  0  0  0  0  0
    1.8146    0.8252   -0.3720 C   0  0  0  0  0  0  0  0  0  0  0  0
    0.9703   -0.3831   -0.0995 C   0  0  1  0  0  0  0  0  0  0  0  0
    0.3556   -0.4718    1.2397 C   0  0  0  0  0  0  0  0  0  0  0  0
   -0.5083   -0.2899   -0.0131 C   0  0  0  0  0  0  0  0  0  0  0  0
   -1.3628   -1.4949   -0.3234 C   0  0  0  0  0  0  0  0  0  0  0  0
   -1.1526   -1.9224   -1.6137 O   0  0  0  0  0  0  0  0  0  0  0  0
   -1.1871    1.0411   -0.1250 C   0  0  0  0  0  0  0  0  0  0  0  0
   -0.7593    1.8961    0.8807 O   0  0  0  0  0  0  0  0  0  0  0  0
    3.7032    0.6385    0.1159 H   0  0  0  0  0  0  0  0  0  0  0  0
    1.2752    1.7853   -0.2612 H   0  0  0  0  0  0  0  0  0  0  0  0
    2.2548    0.8081   -1.3904 H   0  0  0  0  0  0  0  0  0  0  0  0
    1.3497   -1.3114   -0.5805 H   0  0  0  0  0  0  0  0  0  0  0  0
    0.4313    0.3986    1.9278 H   0  0  0  0  0  0  0  0  0  0  0  0
    0.3828   -1.4638    1.7210 H   0  0  0  0  0  0  0  0  0  0  0  0
   -1.1880   -2.3358    0.3820 H   0  0  0  0  0  0  0  0  0  0  0  0
   -2.4223   -1.2069   -0.2023 H   0  0  0  0  0  0  0  0  0  0  0  0
   -1.9942   -1.9413   -2.1295 H   0  0  0  0  0  0  0  0  0  0  0  0
   -2.2921    0.8940   -0.0026 H   0  0  0  0  0  0  0  0  0  0  0  0
   -1.0152    1.4869   -1.1423 H   0  0  0  0  0  0  0  0  0  0  0  0
   -1.5139    2.2251    1.4288 H   0  0  0  0  0  0  0  0  0  0  0  0
  1  2  1  0
  2  3  1  0
  3  4  1  0
  4  5  1  0
  5  6  1  0
  6  7  1  0
  5  8  1  0
  8  9  1  0
  5  3  1  0
  1 10  1  0
  2 11  1  0
  2 12  1  0
  3 13  1  6
  4 14  1  0
  4 15  1  0
  6 16  1  0
  6 17  1  0
  7 18  1  0
  8 19  1  0
  8 20  1  0
  9 21  1  0
M  END
$$$$

     RDKit          3D

 21 21  0  0  0  0  0  0  0  0999 V2000
    3.0366    0.3905   -0.7810 O   0  0  0  0  0  0  0  0  0  0  0  0
    1.7964   -0.1184   -1.2213 C   0  0  0  0  0  0  0  0  0  0  0  0
    0.9766   -0.3817    0.0154 C   0  0  1  0  0  0  0  0  0  0  0  0
    0.6482    0.7351    0.9467 C   0  0  0  0  0  0  0  0  0  0  0  0
   -0.4084    0.0918    0.1535 C   0  0  0  0  0  0  0  0  0  0  0  0
   -1.3657   -0.9080    0.8109 C   0  0  0  0  0  0  0  0  0  0  0  0
   -1.3532   -2.0378   -0.0099 O   0  0  0  0  0  0  0  0  0  0  0  0
   -1.0709    0.9331   -0.8953 C   0  0  0  0  0  0  0  0  0  0  0  0
   -2.3833    1.2151   -0.4621 O   0  0  0  0  0  0  0  0  0  0  0  0
    3.5026   -0.3933   -0.3807 H   0  0  0  0  0  0  0  0  0  0  0  0
    2.0223   -1.0896   -1.7101 H   0  0  0  0  0  0  0  0  0  0  0  0
    1.3012    0.5744   -1.9330 H   0  0  0  0  0  0  0  0  0  0  0  0
    1.2730   -1.3350    0.5290 H   0  0  0  0  0  0  0  0  0  0  0  0
    0.6597    0.5709    2.0294 H   0  0  0  0  0  0  0  0  0  0  0  0
    0.9541    1.7804    0.6706 H   0  0  0  0  0  0  0  0  0  0  0  0
   -0.9365   -1.2182    1.8031 H   0  0  0  0  0  0  0  0  0  0  0  0
   -2.3681   -0.4680    0.9017 H   0  0  0  0  0  0  0  0  0  0  0  0
   -2.1841   -2.5578    0.0390 H   0  0  0  0  0  0  0  0  0  0  0  0
   -0.5818    1.8875   -1.0962 H   0  0  0  0  0  0  0  0  0  0  0  0
   -1.1785    0.3330   -1.8196 H   0  0  0  0  0  0  0  0  0  0  0  0
   -2.3401    1.9959    0.1742 H   0  0  0  0  0  0  0  0  0  0  0  0
  1  2  1  0
  2  3  1  0
  3  4  1  0
  4  5  1  0
  5  6  1  0
  6  7  1  0
  5  8  1  0
  8  9  1  0
  5  3  1  0
  1 10  1  0
  2 11  1  0
  2 12  1  0
  3 13  1  1
  4 14  1  0
  4 15  1  0
  6 16  1  0
  6 17  1  0
  7 18  1  0
  8 19  1  0
  8 20  1  0
  9 21  1  0
M  END
$$$$

     RDKit          3D

 21 21  0  0  0  0  0  0  0  0999 V2000
   -3.1190   -0.7023   -0.3601 O   0  0  0  0  0  0  0  0  0  0  0  0
   -1.9749   -0.0462   -0.8334 C   0  0  0  0  0  0  0  0  0  0  0  0
   -1.0264    0.2682    0.2900 C   0  0  1  0  0  0  0  0  0  0  0  0
   -0.4646   -0.8614    1.1150 C   0  0  0  0  0  0  0  0  0  0  0  0
    0.4123   -0.0249    0.2165 C   0  0  0  0  0  0  0  0  0  0  0  0
    1.0118   -0.7923   -0.9355 C   0  0  0  0  0  0  0  0  0  0  0  0
    2.3873   -0.8965   -0.7000 O   0  0  0  0  0  0  0  0  0  0  0  0
    1.3506    0.9897    0.8346 C   0  0  0  0  0  0  0  0  0  0  0  0
    1.1406    2.1948    0.1648 O   0  0  0  0  0  0  0  0  0  0  0  0
   -2.9019   -1.5616    0.0771 H   0  0  0  0  0  0  0  0  0  0  0  0
   -1.5047   -0.5972   -1.6635 H   0  0  0  0  0  0  0  0  0  0  0  0
   -2.3322    0.9290   -1.2481 H   0  0  0  0  0  0  0  0  0  0  0  0
   -1.3325    1.1435    0.8987 H   0  0  0  0  0  0  0  0  0  0  0  0
   -0.7316   -1.8881    0.8049 H   0  0  0  0  0  0  0  0  0  0  0  0
   -0.3114   -0.7412    2.1933 H   0  0  0  0  0  0  0  0  0  0  0  0
    0.6213   -1.8043   -1.0468 H   0  0  0  0  0  0  0  0  0  0  0  0
    0.9207   -0.1996   -1.8882 H   0  0  0  0  0  0  0  0  0  0  0  0
    2.8975   -0.1929   -1.1549 H   0  0  0  0  0  0  0  0  0  0  0  0
    1.1351    1.1071    1.9106 H   0  0  0  0  0  0  0  0  0  0  0  0
    2.3968    0.6932    0.6343 H   0  0  0  0  0  0  0  0  0  0  0  0
    1.4251    2.9831    0.6907 H   0  0  0  0  0  0  0  0  0  0  0  0
  1  2  1  0
  2  3  1  0
  3  4  1  0
  4  5  1  0
  5  6  1  0
  6  7  1  0
  5  8  1  0
  8  9  1  0
  5  3  1  0
  1 10  1  0
  2 11  1  0
  2 12  1  0
  3 13  1  1
  4 14  1  0
  4 15  1  0
  6 16  1  0
  6 17  1  0
  7 18  1  0
  8 19  1  0
  8 20  1  0
  9 21  1  0
M  END
$$$$

     RDKit          3D

 21 21  0  0  0  0  0  0  0  0999 V2000
   -2.8168   -1.1753   -0.0507 O   0  0  0  0  0  0  0  0  0  0  0  0
   -1.8618   -0.6795    0.8208 C   0  0  0  0  0  0  0  0  0  0  0  0
   -1.0267    0.3722    0.1521 C   0  0  1  0  0  0  0  0  0  0  0  0
    0.0545    0.9582    1.0818 C   0  0  0  0  0  0  0  0  0  0  0  0
    0.3932    0.1702   -0.1681 C   0  0  0  0  0  0  0  0  0  0  0  0
    0.9808    0.9728   -1.3051 C   0  0  0  0  0  0  0  0  0  0  0  0
    0.8542    2.3093   -1.0140 O   0  0  0  0  0  0  0  0  0  0  0  0
    1.0490   -1.1866    0.0309 C   0  0  0  0  0  0  0  0  0  0  0  0
    2.3729   -1.0639   -0.3530 O   0  0  0  0  0  0  0  0  0  0  0  0
   -3.5906   -1.5215    0.4454 H   0  0  0  0  0  0  0  0  0  0  0  0
   -2.3852   -0.1923    1.6784 H   0  0  0  0  0  0  0  0  0  0  0  0
   -1.2355   -1.4814    1.2547 H   0  0  0  0  0  0  0  0  0  0  0  0
   -1.5809    1.0811   -0.4891 H   0  0  0  0  0  0  0  0  0  0  0  0
    0.2579    0.4459    2.0306 H   0  0  0  0  0  0  0  0  0  0  0  0
    0.1722    2.0542    1.0798 H   0  0  0  0  0  0  0  0  0  0  0  0
    2.0627    0.7079   -1.3845 H   0  0  0  0  0  0  0  0  0  0  0  0
    0.4635    0.7595   -2.2746 H   0  0  0  0  0  0  0  0  0  0  0  0
    1.6565    2.6945   -0.5667 H   0  0  0  0  0  0  0  0  0  0  0  0
    0.4949   -1.9289   -0.5441 H   0  0  0  0  0  0  0  0  0  0  0  0
    0.9776   -1.4737    1.1090 H   0  0  0  0  0  0  0  0  0  0  0  0
    2.7076   -1.8226   -0.8687 H   0  0  0  0  0  0  0  0  0  0  0  0
  1  2  1  0
  2  3  1  0
  3  4  1  0
  4  5  1  0
  5  6  1  0
  6  7  1  0
  5  8  1  0
  8  9  1  0
  5  3  1  0
  1 10  1  0
  2 11  1  0
  2 12  1  0
  3 13  1  6
  4 14  1  0
  4 15  1  0
  6 16  1  0
  6 17  1  0
  7 18  1  0
  8 19  1  0
  8 20  1  0
  9 21  1  0
M  END
$$$$
