
     RDKit          3D

 20 21  0  0  0  0  0  0  0  0999 V2000
    2.5880    1.0272   -0.6410 N   0  0  0  0  0  0  0  0  0  0  0  0
    1.8596    0.1907    0.2744 C   0  0  0  0  0  0  0  0  0  0  0  0
    0.8763   -0.6932   -0.4603 C   0  0  1  0  0  0  0  0  0  0  0  0
    0.0574   -1.4143    0.5843 C   0  0  0  0  0  0  0  0  0  0  0  0
   -1.1585   -0.6146    0.6542 N   0  0  0  0  0  0  0  0  0  0  0  0
   -2.4259   -0.0333    0.8802 C   0  0  0  0  0  0  0  0  0  0  0  0
   -3.2196   -0.0525    1.8317 O   0  0  0  0  0  0  0  0  0  0  0  0
   -2.3496    0.5620   -0.4652 C   0  0  0  0  0  0  0  0  0  0  0  0
   -0.8620    0.5532   -0.1905 C   0  0  2  0  0  0  0  0  0  0  0  0
   -0.0572    0.0667   -1.1756 O   0  0  0  0  0  0  0  0  0  0  0  0
    2.7822    0.5311   -1.5431 H   0  0  0  0  0  0  0  0  0  0  0  0
    2.1453    1.9616   -0.7762 H   0  0  0  0  0  0  0  0  0  0  0  0
    1.3890    0.8027    1.0449 H   0  0  0  0  0  0  0  0  0  0  0  0
    2.5998   -0.4999    0.7503 H   0  0  0  0  0  0  0  0  0  0  0  0
    1.4441   -1.3829   -1.0992 H   0  0  0  0  0  0  0  0  0  0  0  0
   -0.1839   -2.4244    0.1983 H   0  0  0  0  0  0  0  0  0  0  0  0
    0.5169   -1.4147    1.5786 H   0  0  0  0  0  0  0  0  0  0  0  0
   -2.6758   -0.1735   -1.2276 H   0  0  0  0  0  0  0  0  0  0  0  0
   -2.7918    1.5703   -0.5818 H   0  0  0  0  0  0  0  0  0  0  0  0
   -0.5344    1.4379    0.3636 H   0  0  0  0  0  0  0  0  0  0  0  0
  1  2  1  0
  2  3  1  0
  3  4  1  0
  4  5  1  0
  5  6  1  0
  6  7  2  0
  6  8  1  0
  8  9  1  0
  9 10  1  0
 10  3  1  0
  9  5  1  0
  1 11  1  0
  1 12  1  0
  2 13  1  0
  2 14  1  0
  3 15  1  6
  4 16  1  0
  4 17  1  0
  8 18  1  0
  8 19  1  0
  9 20  1  1
M  END
$$$$

     RDKit          3D

 20 21  0  0  0  0  0  0  0  0999 V2000
    2.8114   -0.6789    0.9208 N   0  0  0  0  0  0  0  0  0  0  0  0
    2.1428    0.2504    0.0852 C   0  0  0  0  0  0  0  0  0  0  0  0
    0.6718    0.2884    0.5066 C   0  0  1  0  0  0  0  0  0  0  0  0
   -0.0598    1.1932   -0.4560 C   0  0  0  0  0  0  0  0  0  0  0  0
   -1.3667    0.6217   -0.4477 N   0  0  0  0  0  0  0  0  0  0  0  0
   -2.7410    0.3021   -0.4656 C   0  0  0  0  0  0  0  0  0  0  0  0
   -3.7346    0.8064   -1.0290 O   0  0  0  0  0  0  0  0  0  0  0  0
   -2.4080   -0.8436    0.4543 C   0  0  0  0  0  0  0  0  0  0  0  0
   -1.1202   -0.8186   -0.2986 C   0  0  2  0  0  0  0  0  0  0  0  0
    0.0559   -0.9281    0.3890 O   0  0  0  0  0  0  0  0  0  0  0  0
    3.6099   -0.3070    1.4594 H   0  0  0  0  0  0  0  0  0  0  0  0
    2.9469   -1.6211    0.5290 H   0  0  0  0  0  0  0  0  0  0  0  0
    2.5314    1.2795    0.3283 H   0  0  0  0  0  0  0  0  0  0  0  0
    2.2533    0.1089   -0.9889 H   0  0  0  0  0  0  0  0  0  0  0  0
    0.6179    0.6710    1.5550 H   0  0  0  0  0  0  0  0  0  0  0  0
    0.3856    1.0550   -1.4613 H   0  0  0  0  0  0  0  0  0  0  0  0
    0.0036    2.2248   -0.0887 H   0  0  0  0  0  0  0  0  0  0  0  0
   -3.0644   -1.7256    0.2969 H   0  0  0  0  0  0  0  0  0  0  0  0
   -2.3476   -0.5463    1.5228 H   0  0  0  0  0  0  0  0  0  0  0  0
   -1.1881   -1.3320   -1.2651 H   0  0  0  0  0  0  0  0  0  0  0  0
  1  2  1  0
  2  3  1  0
  3  4  1  0
  4  5  1  0
  5  6  1  0
  6  7  2  0
  6  8  1  0
  8  9  1  0
  9 10  1  0
 10  3  1  0
  9  5  1  0
  1 11  1  0
  1 12  1  0
  2 13  1  0
  2 14  1  0
  3 15  1  1
  4 16  1  0
  4 17  1  0
  8 18  1  0
  8 19  1  0
  9 20  1  6
M  END
$$$$

     RDKit          3D

 20 21  0  0  0  0  0  0  0  0999 V2000
   -1.9871   -0.1792   -1.4173 N   0  0  0  0  0  0  0  0  0  0  0  0
   -1.9982    0.7781   -0.3604 C   0  0  0  0  0  0  0  0  0  0  0  0
   -0.7272    0.8329    0.4318 C   0  0  1  0  0  0  0  0  0  0  0  0
   -0.3877   -0.4920    1.0886 C   0  0  0  0  0  0  0  0  0  0  0  0
    1.0032   -0.6295    0.7254 N   0  0  0  0  0  0  0  0  0  0  0  0
    2.3890   -0.8881    0.6131 C   0  0  0  0  0  0  0  0  0  0  0  0
    3.2253   -1.6221    1.1986 O   0  0  0  0  0  0  0  0  0  0  0  0
    2.5752    0.0686   -0.5225 C   0  0  0  0  0  0  0  0  0  0  0  0
    1.0720   -0.0063   -0.5850 C   0  0  2  0  0  0  0  0  0  0  0  0
    0.3785    1.1660   -0.3682 O   0  0  0  0  0  0  0  0  0  0  0  0
   -2.1796   -1.1652   -1.1112 H   0  0  0  0  0  0  0  0  0  0  0  0
   -2.7816    0.0604   -2.0726 H   0  0  0  0  0  0  0  0  0  0  0  0
   -2.8253    0.5923    0.3435 H   0  0  0  0  0  0  0  0  0  0  0  0
   -2.1619    1.7778   -0.7982 H   0  0  0  0  0  0  0  0  0  0  0  0
   -0.7910    1.5887    1.2380 H   0  0  0  0  0  0  0  0  0  0  0  0
   -0.9389   -1.3433    0.6225 H   0  0  0  0  0  0  0  0  0  0  0  0
   -0.5370   -0.4563    2.1867 H   0  0  0  0  0  0  0  0  0  0  0  0
    3.0438   -0.4397   -1.3766 H   0  0  0  0  0  0  0  0  0  0  0  0
    2.9664    1.0515   -0.2372 H   0  0  0  0  0  0  0  0  0  0  0  0
    0.6621   -0.6946   -1.3438 H   0  0  0  0  0  0  0  0  0  0  0  0
  1  2  1  0
  2  3  1  0
  3  4  1  0
  4  5  1  0
  5  6  1  0
  6  7  2  0
  6  8  1  0
  8  9  1  0
  9 10  1  0
 10  3  1  0
  9  5  1  0
  1 11  1  0
  1 12  1  0
  2 13  1  0
  2 14  1  0
  3 15  1  1
  4 16  1  0
  4 17  1  0
  8 18  1  0
  8 19  1  0
  9 20  1  6
M  END
$$$$

     RDKit          3D

 20 21  0  0  0  0  0  0  0  0999 V2000
    2.7764   -0.1059    1.0049 N   0  0  0  0  0  0  0  0  0  0  0  0
    1.9393   -0.6816   -0.0128 C   0  0  0  0  0  0  0  0  0  0  0  0
    0.9211    0.3704   -0.4114 C   0  0  1  0  0  0  0  0  0  0  0  0
   -0.0750   -0.1951   -1.4330 C   0  0  0  0  0  0  0  0  0  0  0  0
   -1.3265    0.1157   -0.7955 N   0  0  0  0  0  0  0  0  0  0  0  0
   -2.6748    0.4547   -0.5549 C   0  0  0  0  0  0  0  0  0  0  0  0
   -3.7820    0.5275   -1.1448 O   0  0  0  0  0  0  0  0  0  0  0  0
   -2.3220    0.7561    0.8757 C   0  0  0  0  0  0  0  0  0  0  0  0
   -1.0310    0.0289    0.6237 C   0  0  2  0  0  0  0  0  0  0  0  0
    0.1346    0.7518    0.7007 O   0  0  0  0  0  0  0  0  0  0  0  0
    3.7781   -0.3934    0.9217 H   0  0  0  0  0  0  0  0  0  0  0  0
    2.4611   -0.3162    1.9717 H   0  0  0  0  0  0  0  0  0  0  0  0
    2.5379   -0.8981   -0.9100 H   0  0  0  0  0  0  0  0  0  0  0  0
    1.4033   -1.5791    0.3327 H   0  0  0  0  0  0  0  0  0  0  0  0
    1.3926    1.2400   -0.8956 H   0  0  0  0  0  0  0  0  0  0  0  0
    0.0535    0.2541   -2.4182 H   0  0  0  0  0  0  0  0  0  0  0  0
    0.0020   -1.3075   -1.4743 H   0  0  0  0  0  0  0  0  0  0  0  0
   -2.2336    1.8249    1.0929 H   0  0  0  0  0  0  0  0  0  0  0  0
   -2.9580    0.1771    1.5762 H   0  0  0  0  0  0  0  0  0  0  0  0
   -0.9968   -1.0241    0.9504 H   0  0  0  0  0  0  0  0  0  0  0  0
  1  2  1  0
  2  3  1  0
  3  4  1  0
  4  5  1  0
  5  6  1  0
  6  7  2  0
  6  8  1  0
  8  9  1  0
  9 10  1  0
 10  3  1  0
  9  5  1  0
  1 11  1  0
  1 12  1  0
  2 13  1  0
  2 14  1  0
  3 15  1  6
  4 16  1  0
  4 17  1  0
  8 18  1  0
  8 19  1  0
  9 20  1  1
M  END
$$$$

     RDKit          3D

 20 21  0  0  0  0  0  0  0  0999 V2000
   -3.0288    0.1153    0.6378 N   0  0  0  0  0  0  0  0  0  0  0  0
   -1.8698    0.8834    0.3062 C   0  0  0  0  0  0  0  0  0  0  0  0
   -0.8323    0.1088   -0.4744 C   0  0  1  0  0  0  0  0  0  0  0  0
    0.3257    1.0425   -0.7505 C   0  0  0  0  0  0  0  0  0  0  0  0
    1.4361    0.3341   -0.2229 N   0  0  0  0  0  0  0  0  0  0  0  0
    2.7145   -0.1632    0.1160 C   0  0  0  0  0  0  0  0  0  0  0  0
    3.8520    0.3143    0.2985 O   0  0  0  0  0  0  0  0  0  0  0  0
    2.0573   -1.5222    0.1505 C   0  0  0  0  0  0  0  0  0  0  0  0
    0.9034   -0.7029    0.6810 C   0  0  2  0  0  0  0  0  0  0  0  0
   -0.3541   -0.9947    0.2003 O   0  0  0  0  0  0  0  0  0  0  0  0
   -3.2157   -0.6778   -0.0145 H   0  0  0  0  0  0  0  0  0  0  0  0
   -3.1286   -0.1353    1.6290 H   0  0  0  0  0  0  0  0  0  0  0  0
   -1.3895    1.2338    1.2461 H   0  0  0  0  0  0  0  0  0  0  0  0
   -2.1817    1.7372   -0.3380 H   0  0  0  0  0  0  0  0  0  0  0  0
   -1.3010   -0.2528   -1.4118 H   0  0  0  0  0  0  0  0  0  0  0  0
    0.1744    2.0397   -0.2780 H   0  0  0  0  0  0  0  0  0  0  0  0
    0.3533    1.2169   -1.8363 H   0  0  0  0  0  0  0  0  0  0  0  0
    2.5101   -2.2110    0.8781 H   0  0  0  0  0  0  0  0  0  0  0  0
    1.9597   -1.8764   -0.8877 H   0  0  0  0  0  0  0  0  0  0  0  0
    1.0153   -0.4897    1.7414 H   0  0  0  0  0  0  0  0  0  0  0  0
  1  2  1  0
  2  3  1  0
  3  4  1  0
  4  5  1  0
  5  6  1  0
  6  7  2  0
  6  8  1  0
  8  9  1  0
  9 10  1  0
 10  3  1  0
  9  5  1  0
  1 11  1  0
  1 12  1  0
  2 13  1  0
  2 14  1  0
  3 15  1  6
  4 16  1  0
  4 17  1  0
  8 18  1  0
  8 19  1  0
  9 20  1  1
M  END
$$$$

     RDKit          3D

 20 21  0  0  0  0  0  0  0  0999 V2000
   -2.9754    0.2775    0.2690 N   0  0  0  0  0  0  0  0  0  0  0  0
   -2.0494   -0.3222   -0.6726 C   0  0  0  0  0  0  0  0  0  0  0  0
   -0.7067    0.3043   -0.4600 C   0  0  1  0  0  0  0  0  0  0  0  0
   -0.2615    0.0056    0.9612 C   0  0  0  0  0  0  0  0  0  0  0  0
    1.1961    0.0627    0.7778 N   0  0  0  0  0  0  0  0  0  0  0  0
    2.6088    0.2167    0.8313 C   0  0  0  0  0  0  0  0  0  0  0  0
    3.4175    0.1901    1.7742 O   0  0  0  0  0  0  0  0  0  0  0  0
    2.5741    0.3997   -0.6535 C   0  0  0  0  0  0  0  0  0  0  0  0
    1.3839   -0.4936   -0.5650 C   0  0  2  0  0  0  0  0  0  0  0  0
    0.2732   -0.1716   -1.2890 O   0  0  0  0  0  0  0  0  0  0  0  0
   -3.9104   -0.1758    0.2369 H   0  0  0  0  0  0  0  0  0  0  0  0
   -2.6186    0.2855    1.2348 H   0  0  0  0  0  0  0  0  0  0  0  0
   -2.4537   -0.1850   -1.6736 H   0  0  0  0  0  0  0  0  0  0  0  0
   -1.9700   -1.4047   -0.4614 H   0  0  0  0  0  0  0  0  0  0  0  0
   -0.7632    1.4069   -0.5984 H   0  0  0  0  0  0  0  0  0  0  0  0
   -0.5641   -1.0291    1.1834 H   0  0  0  0  0  0  0  0  0  0  0  0
   -0.5946    0.7547    1.6768 H   0  0  0  0  0  0  0  0  0  0  0  0
    3.4719    0.0025   -1.1283 H   0  0  0  0  0  0  0  0  0  0  0  0
    2.2927    1.4456   -0.9476 H   0  0  0  0  0  0  0  0  0  0  0  0
    1.6496   -1.5697   -0.4961 H   0  0  0  0  0  0  0  0  0  0  0  0
  1  2  1  0
  2  3  1  0
  3  4  1  0
  4  5  1  0
  5  6  1  0
  6  7  2  0
  6  8  1  0
  8  9  1  0
  9 10  1  0
 10  3  1  0
  9  5  1  0
  1 11  1  0
  1 12  1  0
  2 13  1  0
  2 14  1  0
  3 15  1  1
  4 16  1  0
  4 17  1  0
  8 18  1  0
  8 19  1  0
  9 20  1  1
M  END
$$$$

     RDKit          3D

 20 21  0  0  0  0  0  0  0  0999 V2000
   -3.0178   -0.5457    0.2411 N   0  0  0  0  0  0  0  0  0  0  0  0
   -1.8168   -1.1853   -0.2620 C   0  0  0  0  0  0  0  0  0  0  0  0
   -0.7821   -0.1409   -0.5500 C   0  0  1  0  0  0  0  0  0  0  0  0
   -0.4237    0.6766    0.6931 C   0  0  0  0  0  0  0  0  0  0  0  0
    0.9971    0.8283    0.4672 N   0  0  0  0  0  0  0  0  0  0  0  0
    2.3177    1.3292    0.3790 C   0  0  0  0  0  0  0  0  0  0  0  0
    2.9941    2.3029    0.7923 O   0  0  0  0  0  0  0  0  0  0  0  0
    2.6586    0.1652   -0.4705 C   0  0  0  0  0  0  0  0  0  0  0  0
    1.3669   -0.4867   -0.0517 C   0  0  2  0  0  0  0  0  0  0  0  0
    0.4022   -0.6523   -1.0351 O   0  0  0  0  0  0  0  0  0  0  0  0
   -2.7383    0.1787    0.9623 H   0  0  0  0  0  0  0  0  0  0  0  0
   -3.3887    0.0375   -0.5652 H   0  0  0  0  0  0  0  0  0  0  0  0
   -1.5067   -1.9277    0.4699 H   0  0  0  0  0  0  0  0  0  0  0  0
   -2.0919   -1.6453   -1.2332 H   0  0  0  0  0  0  0  0  0  0  0  0
   -1.1777    0.5821   -1.2873 H   0  0  0  0  0  0  0  0  0  0  0  0
   -0.5413    0.0753    1.6194 H   0  0  0  0  0  0  0  0  0  0  0  0
   -0.9681    1.6299    0.7294 H   0  0  0  0  0  0  0  0  0  0  0  0
    2.7554    0.3742   -1.5505 H   0  0  0  0  0  0  0  0  0  0  0  0
    3.5425   -0.3553   -0.0823 H   0  0  0  0  0  0  0  0  0  0  0  0
    1.4185   -1.2405    0.7341 H   0  0  0  0  0  0  0  0  0  0  0  0
  1  2  1  0
  2  3  1  0
  3  4  1  0
  4  5  1  0
  5  6  1  0
  6  7  2  0
  6  8  1  0
  8  9  1  0
  9 10  1  0
 10  3  1  0
  9  5  1  0
  1 11  1  0
  1 12  1  0
  2 13  1  0
  2 14  1  0
  3 15  1  6
  4 16  1  0
  4 17  1  0
  8 18  1  0
  8 19  1  0
  9 20  1  1
M  END
$$$$

     RDKit          3D

 20 21  0  0  0  0  0  0  0  0999 V2000
   -2.9273   -0.0081    0.7365 N   0  0  0  0  0  0  0  0  0  0  0  0
   -2.0654    0.0255   -0.4398 C   0  0  0  0  0  0  0  0  0  0  0  0
   -0.7783   -0.7046   -0.0674 C   0  0  1  0  0  0  0  0  0  0  0  0
    0.1951   -0.6772   -1.2115 C   0  0  0  0  0  0  0  0  0  0  0  0
    1.3424   -0.0163   -0.7078 N   0  0  0  0  0  0  0  0  0  0  0  0
    2.5946    0.5319   -0.4134 C   0  0  0  0  0  0  0  0  0  0  0  0
    3.5181    0.9599   -1.0984 O   0  0  0  0  0  0  0  0  0  0  0  0
    2.2694    0.3503    1.0087 C   0  0  0  0  0  0  0  0  0  0  0  0
    0.8805    0.6789    0.5145 C   0  0  2  0  0  0  0  0  0  0  0  0
   -0.1622   -0.0878    0.9881 O   0  0  0  0  0  0  0  0  0  0  0  0
   -2.6520    0.7964    1.3336 H   0  0  0  0  0  0  0  0  0  0  0  0
   -2.7257   -0.9084    1.2268 H   0  0  0  0  0  0  0  0  0  0  0  0
   -2.5526   -0.4877   -1.2878 H   0  0  0  0  0  0  0  0  0  0  0  0
   -1.8107    1.0782   -0.6612 H   0  0  0  0  0  0  0  0  0  0  0  0
   -1.0284   -1.7449    0.2486 H   0  0  0  0  0  0  0  0  0  0  0  0
    0.3685   -1.7365   -1.5215 H   0  0  0  0  0  0  0  0  0  0  0  0
   -0.2075   -0.1679   -2.1110 H   0  0  0  0  0  0  0  0  0  0  0  0
    2.3353   -0.7126    1.3689 H   0  0  0  0  0  0  0  0  0  0  0  0
    2.7053    1.0894    1.7065 H   0  0  0  0  0  0  0  0  0  0  0  0
    0.7010    1.7413    0.3875 H   0  0  0  0  0  0  0  0  0  0  0  0
  1  2  1  0
  2  3  1  0
  3  4  1  0
  4  5  1  0
  5  6  1  0
  6  7  2  0
  6  8  1  0
  8  9  1  0
  9 10  1  0
 10  3  1  0
  9  5  1  0
  1 11  1  0
  1 12  1  0
  2 13  1  0
  2 14  1  0
  3 15  1  1
  4 16  1  0
  4 17  1  0
  8 18  1  0
  8 19  1  0
  9 20  1  6
M  END
$$$$
