
     RDKit          3D

 19 19  0  0  0  0  0  0  0  0999 V2000
   -2.6218    1.8398   -2.1631 N   0  0  0  0  0  0  0  0  0  0  0  0
   -2.0944    1.2167   -1.0073 C   0  0  0  0  0  0  0  0  0  0  0  0
   -2.8451    1.0790    0.0090 O   0  0  0  0  0  0  0  0  0  0  0  0
   -0.7789    0.7291   -0.8949 N   0  0  0  0  0  0  0  0  0  0  0  0
   -0.2302    0.0947    0.2711 C   0  0  2  0  0  0  0  0  0  0  0  0
    0.8670    0.8803    0.7773 N   0  0  0  0  0  0  0  0  0  0  0  0
    1.7849    0.0224    1.4251 C   0  0  0  0  0  0  0  0  0  0  0  0
    2.6953    0.3227    2.2635 O   0  0  0  0  0  0  0  0  0  0  0  0
    1.4929   -1.2938    0.9485 N   0  0  0  0  0  0  0  0  0  0  0  0
    2.1778   -2.4739    1.3403 C   0  0  0  0  0  0  0  0  0  0  0  0
    1.8579   -3.5951    0.8728 O   0  0  0  0  0  0  0  0  0  0  0  0
    0.3949   -1.1995    0.0149 C   0  0  0  0  0  0  0  0  0  0  0  0
    0.1605   -2.1330   -0.7901 O   0  0  0  0  0  0  0  0  0  0  0  0
   -2.0508    2.3910   -2.8284 H   0  0  0  0  0  0  0  0  0  0  0  0
   -3.6349    1.7402   -2.3560 H   0  0  0  0  0  0  0  0  0  0  0  0
   -0.1573    0.8388   -1.7252 H   0  0  0  0  0  0  0  0  0  0  0  0
   -0.9748    0.0248    1.1050 H   0  0  0  0  0  0  0  0  0  0  0  0
    0.9760    1.9030    0.6877 H   0  0  0  0  0  0  0  0  0  0  0  0
    2.9811   -2.3872    2.0498 H   0  0  0  0  0  0  0  0  0  0  0  0
  1  2  1  0
  2  3  2  0
  2  4  1  0
  4  5  1  0
  5  6  1  0
  6  7  1  0
  7  8  2  0
  7  9  1  0
  9 10  1  0
 10 11  2  0
  9 12  1  0
 12 13  2  0
 12  5  1  0
  1 14  1  0
  1 15  1  0
  4 16  1  0
  5 17  1  1
  6 18  1  0
 10 19  1  0
M  END
$$$$

     RDKit          3D

 19 19  0  0  0  0  0  0  0  0999 V2000
    3.5070   -0.6243   -0.3868 N   0  0  0  0  0  0  0  0  0  0  0  0
    2.3161   -0.0913   -0.9157 C   0  0  0  0  0  0  0  0  0  0  0  0
    2.2294    0.3996   -2.0844 O   0  0  0  0  0  0  0  0  0  0  0  0
    1.1168   -0.0751   -0.1475 N   0  0  0  0  0  0  0  0  0  0  0  0
   -0.0949    0.4544   -0.6537 C   0  0  2  0  0  0  0  0  0  0  0  0
   -0.6926    1.4907    0.1280 N   0  0  0  0  0  0  0  0  0  0  0  0
   -1.5494    0.8659    1.0764 C   0  0  0  0  0  0  0  0  0  0  0  0
   -1.9585    1.3384    2.1860 O   0  0  0  0  0  0  0  0  0  0  0  0
   -1.8710   -0.4311    0.5271 N   0  0  0  0  0  0  0  0  0  0  0  0
   -2.7074   -1.3953    1.1507 C   0  0  0  0  0  0  0  0  0  0  0  0
   -2.9002   -2.4802    0.5592 O   0  0  0  0  0  0  0  0  0  0  0  0
   -1.2047   -0.5480   -0.7240 C   0  0  0  0  0  0  0  0  0  0  0  0
   -1.5273   -1.3315   -1.6295 O   0  0  0  0  0  0  0  0  0  0  0  0
    3.8011   -0.3782    0.5688 H   0  0  0  0  0  0  0  0  0  0  0  0
    4.0836   -1.2599   -0.9554 H   0  0  0  0  0  0  0  0  0  0  0  0
    1.1571   -0.4727    0.8193 H   0  0  0  0  0  0  0  0  0  0  0  0
    0.0435    0.8315   -1.6896 H   0  0  0  0  0  0  0  0  0  0  0  0
   -0.5659    2.5410    0.0658 H   0  0  0  0  0  0  0  0  0  0  0  0
   -3.1827   -1.2391    2.1052 H   0  0  0  0  0  0  0  0  0  0  0  0
  1  2  1  0
  2  3  2  0
  2  4  1  0
  4  5  1  0
  5  6  1  0
  6  7  1  0
  7  8  2  0
  7  9  1  0
  9 10  1  0
 10 11  2  0
  9 12  1  0
 12 13  2  0
 12  5  1  0
  1 14  1  0
  1 15  1  0
  4 16  1  0
  5 17  1  6
  6 18  1  0
 10 19  1  0
M  END
$$$$

     RDKit          3D

 19 19  0  0  0  0  0  0  0  0999 V2000
   -3.6969    0.7407    0.1598 N   0  0  0  0  0  0  0  0  0  0  0  0
   -2.4892    0.4234   -0.5055 C   0  0  0  0  0  0  0  0  0  0  0  0
   -2.4290    0.4681   -1.7715 O   0  0  0  0  0  0  0  0  0  0  0  0
   -1.2934    0.0439    0.1680 N   0  0  0  0  0  0  0  0  0  0  0  0
   -0.0796   -0.2719   -0.5633 C   0  0  2  0  0  0  0  0  0  0  0  0
    0.4547   -1.5521   -0.2523 N   0  0  0  0  0  0  0  0  0  0  0  0
    1.7777   -1.3946    0.2285 C   0  0  0  0  0  0  0  0  0  0  0  0
    2.5937   -2.2804    0.6105 O   0  0  0  0  0  0  0  0  0  0  0  0
    2.1213   -0.0016    0.2359 N   0  0  0  0  0  0  0  0  0  0  0  0
    3.3559    0.5671    0.6479 C   0  0  0  0  0  0  0  0  0  0  0  0
    4.2854   -0.1864    1.0608 O   0  0  0  0  0  0  0  0  0  0  0  0
    1.0034    0.7143   -0.2441 C   0  0  0  0  0  0  0  0  0  0  0  0
    0.8404    1.9511   -0.4124 O   0  0  0  0  0  0  0  0  0  0  0  0
   -4.2801    0.0354    0.6412 H   0  0  0  0  0  0  0  0  0  0  0  0
   -4.0212    1.7287    0.1699 H   0  0  0  0  0  0  0  0  0  0  0  0
   -1.3375    0.0055    1.2106 H   0  0  0  0  0  0  0  0  0  0  0  0
   -0.2931   -0.1569   -1.6456 H   0  0  0  0  0  0  0  0  0  0  0  0
   -0.0211   -2.4628   -0.3510 H   0  0  0  0  0  0  0  0  0  0  0  0
    3.5088    1.6285    0.6128 H   0  0  0  0  0  0  0  0  0  0  0  0
  1  2  1  0
  2  3  2  0
  2  4  1  0
  4  5  1  0
  5  6  1  0
  6  7  1  0
  7  8  2  0
  7  9  1  0
  9 10  1  0
 10 11  2  0
  9 12  1  0
 12 13  2  0
 12  5  1  0
  1 14  1  0
  1 15  1  0
  4 16  1  0
  5 17  1  6
  6 18  1  0
 10 19  1  0
M  END
$$$$

     RDKit          3D

 19 19  0  0  0  0  0  0  0  0999 V2000
   -3.7968    0.2378    0.4811 N   0  0  0  0  0  0  0  0  0  0  0  0
   -2.5660    0.3502   -0.2057 C   0  0  0  0  0  0  0  0  0  0  0  0
   -2.4919    1.0054   -1.2791 O   0  0  0  0  0  0  0  0  0  0  0  0
   -1.3609   -0.2462    0.2461 N   0  0  0  0  0  0  0  0  0  0  0  0
   -0.1031   -0.1434   -0.4364 C   0  0  2  0  0  0  0  0  0  0  0  0
    0.5796   -1.3814   -0.6267 N   0  0  0  0  0  0  0  0  0  0  0  0
    1.9717   -1.0757   -0.6041 C   0  0  0  0  0  0  0  0  0  0  0  0
    2.9280   -1.7623   -1.0902 O   0  0  0  0  0  0  0  0  0  0  0  0
    2.1428    0.1569    0.0673 N   0  0  0  0  0  0  0  0  0  0  0  0
    3.3324    0.8813    0.3460 C   0  0  0  0  0  0  0  0  0  0  0  0
    4.4351    0.4157   -0.0321 O   0  0  0  0  0  0  0  0  0  0  0  0
    0.8293    0.6003    0.4554 C   0  0  0  0  0  0  0  0  0  0  0  0
    0.5817    1.4365    1.3586 O   0  0  0  0  0  0  0  0  0  0  0  0
   -3.9704   -0.5506    1.1165 H   0  0  0  0  0  0  0  0  0  0  0  0
   -4.5271    0.9584    0.3396 H   0  0  0  0  0  0  0  0  0  0  0  0
   -1.3841   -0.7967    1.1318 H   0  0  0  0  0  0  0  0  0  0  0  0
   -0.1746    0.4633   -1.3725 H   0  0  0  0  0  0  0  0  0  0  0  0
    0.2513   -2.3621   -0.7639 H   0  0  0  0  0  0  0  0  0  0  0  0
    3.3230    1.8128    0.8685 H   0  0  0  0  0  0  0  0  0  0  0  0
  1  2  1  0
  2  3  2  0
  2  4  1  0
  4  5  1  0
  5  6  1  0
  6  7  1  0
  7  8  2  0
  7  9  1  0
  9 10  1  0
 10 11  2  0
  9 12  1  0
 12 13  2  0
 12  5  1  0
  1 14  1  0
  1 15  1  0
  4 16  1  0
  5 17  1  6
  6 18  1  0
 10 19  1  0
M  END
$$$$

     RDKit          3D

 19 19  0  0  0  0  0  0  0  0999 V2000
    3.3063    1.2146    0.2110 N   0  0  0  0  0  0  0  0  0  0  0  0
    2.4243    0.1196    0.4174 C   0  0  0  0  0  0  0  0  0  0  0  0
    2.8677   -0.9581    0.9184 O   0  0  0  0  0  0  0  0  0  0  0  0
    1.0484    0.2387    0.0607 N   0  0  0  0  0  0  0  0  0  0  0  0
    0.1743   -0.8969    0.2840 C   0  0  2  0  0  0  0  0  0  0  0  0
   -0.4458   -1.3198   -0.9556 N   0  0  0  0  0  0  0  0  0  0  0  0
   -1.6065   -0.5272   -1.1177 C   0  0  0  0  0  0  0  0  0  0  0  0
   -2.1918   -0.3226   -2.2177 O   0  0  0  0  0  0  0  0  0  0  0  0
   -1.9604   -0.0280    0.1778 N   0  0  0  0  0  0  0  0  0  0  0  0
   -3.0693    0.8146    0.4706 C   0  0  0  0  0  0  0  0  0  0  0  0
   -3.2772    1.1868    1.6449 O   0  0  0  0  0  0  0  0  0  0  0  0
   -1.0118   -0.5206    1.1203 C   0  0  0  0  0  0  0  0  0  0  0  0
   -1.1405   -0.6172    2.3674 O   0  0  0  0  0  0  0  0  0  0  0  0
    4.3143    1.0143    0.0305 H   0  0  0  0  0  0  0  0  0  0  0  0
    2.9655    2.2012    0.2369 H   0  0  0  0  0  0  0  0  0  0  0  0
    0.6725    1.1009   -0.3449 H   0  0  0  0  0  0  0  0  0  0  0  0
    0.7275   -1.7491    0.7261 H   0  0  0  0  0  0  0  0  0  0  0  0
   -0.0711   -2.0809   -1.5916 H   0  0  0  0  0  0  0  0  0  0  0  0
   -3.7264    1.1299   -0.3179 H   0  0  0  0  0  0  0  0  0  0  0  0
  1  2  1  0
  2  3  2  0
  2  4  1  0
  4  5  1  0
  5  6  1  0
  6  7  1  0
  7  8  2  0
  7  9  1  0
  9 10  1  0
 10 11  2  0
  9 12  1  0
 12 13  2  0
 12  5  1  0
  1 14  1  0
  1 15  1  0
  4 16  1  0
  5 17  1  1
  6 18  1  0
 10 19  1  0
M  END
$$$$

     RDKit          3D

 19 19  0  0  0  0  0  0  0  0999 V2000
   -3.6172    0.1902   -0.0612 N   0  0  0  0  0  0  0  0  0  0  0  0
   -2.4279   -0.5110   -0.4011 C   0  0  0  0  0  0  0  0  0  0  0  0
   -2.4958   -1.5540   -1.0893 O   0  0  0  0  0  0  0  0  0  0  0  0
   -1.1815   -0.0219    0.0426 N   0  0  0  0  0  0  0  0  0  0  0  0
    0.0205   -0.7457   -0.3109 C   0  0  2  0  0  0  0  0  0  0  0  0
    0.7020   -1.1863    0.8965 N   0  0  0  0  0  0  0  0  0  0  0  0
    1.8078   -0.3163    1.1707 C   0  0  0  0  0  0  0  0  0  0  0  0
    2.4978   -0.2377    2.2120 O   0  0  0  0  0  0  0  0  0  0  0  0
    1.9979    0.4781    0.0094 N   0  0  0  0  0  0  0  0  0  0  0  0
    2.9621    1.4805   -0.2083 C   0  0  0  0  0  0  0  0  0  0  0  0
    3.7784    1.7292    0.7318 O   0  0  0  0  0  0  0  0  0  0  0  0
    1.0182    0.1022   -0.9736 C   0  0  0  0  0  0  0  0  0  0  0  0
    0.9869    0.4214   -2.1903 O   0  0  0  0  0  0  0  0  0  0  0  0
   -4.1480    0.0054    0.8253 H   0  0  0  0  0  0  0  0  0  0  0  0
   -4.0191    0.9273   -0.6845 H   0  0  0  0  0  0  0  0  0  0  0  0
   -1.1355    0.8393    0.6098 H   0  0  0  0  0  0  0  0  0  0  0  0
   -0.2136   -1.6400   -0.9186 H   0  0  0  0  0  0  0  0  0  0  0  0
    0.4314   -1.9985    1.4663 H   0  0  0  0  0  0  0  0  0  0  0  0
    3.0356    2.0380   -1.1266 H   0  0  0  0  0  0  0  0  0  0  0  0
  1  2  1  0
  2  3  2  0
  2  4  1  0
  4  5  1  0
  5  6  1  0
  6  7  1  0
  7  8  2  0
  7  9  1  0
  9 10  1  0
 10 11  2  0
  9 12  1  0
 12 13  2  0
 12  5  1  0
  1 14  1  0
  1 15  1  0
  4 16  1  0
  5 17  1  6
  6 18  1  0
 10 19  1  0
M  END
$$$$

     RDKit          3D

 19 19  0  0  0  0  0  0  0  0999 V2000
    3.7704    0.5429   -0.0778 N   0  0  0  0  0  0  0  0  0  0  0  0
    2.5224    0.3756    0.5676 C   0  0  0  0  0  0  0  0  0  0  0  0
    2.4340    0.4556    1.8189 O   0  0  0  0  0  0  0  0  0  0  0  0
    1.3336    0.1138   -0.1602 N   0  0  0  0  0  0  0  0  0  0  0  0
    0.0535   -0.0587    0.4898 C   0  0  2  0  0  0  0  0  0  0  0  0
   -0.4010   -1.4006    0.1804 N   0  0  0  0  0  0  0  0  0  0  0  0
   -1.7766   -1.3507   -0.1213 C   0  0  0  0  0  0  0  0  0  0  0  0
   -2.5477   -2.3623   -0.2334 O   0  0  0  0  0  0  0  0  0  0  0  0
   -2.1479    0.0206   -0.2772 N   0  0  0  0  0  0  0  0  0  0  0  0
   -3.4623    0.4976   -0.5892 C   0  0  0  0  0  0  0  0  0  0  0  0
   -4.4259   -0.2865   -0.7558 O   0  0  0  0  0  0  0  0  0  0  0  0
   -0.9932    0.8193   -0.0698 C   0  0  0  0  0  0  0  0  0  0  0  0
   -0.9658    2.0393   -0.3436 O   0  0  0  0  0  0  0  0  0  0  0  0
    4.2685   -0.2396   -0.5521 H   0  0  0  0  0  0  0  0  0  0  0  0
    4.2280    1.4773   -0.0919 H   0  0  0  0  0  0  0  0  0  0  0  0
    1.4129    0.0485   -1.1983 H   0  0  0  0  0  0  0  0  0  0  0  0
    0.1468    0.0405    1.5783 H   0  0  0  0  0  0  0  0  0  0  0  0
    0.1785   -2.2924    0.1730 H   0  0  0  0  0  0  0  0  0  0  0  0
   -3.6282    1.5600   -0.6835 H   0  0  0  0  0  0  0  0  0  0  0  0
  1  2  1  0
  2  3  2  0
  2  4  1  0
  4  5  1  0
  5  6  1  0
  6  7  1  0
  7  8  2  0
  7  9  1  0
  9 10  1  0
 10 11  2  0
  9 12  1  0
 12 13  2  0
 12  5  1  0
  1 14  1  0
  1 15  1  0
  4 16  1  0
  5 17  1  1
  6 18  1  0
 10 19  1  0
M  END
$$$$

     RDKit          3D

 19 19  0  0  0  0  0  0  0  0999 V2000
    3.2037    0.6874   -0.6699 N   0  0  0  0  0  0  0  0  0  0  0  0
    2.3662   -0.2962   -0.1099 C   0  0  0  0  0  0  0  0  0  0  0  0
    2.7774   -1.3267    0.4730 O   0  0  0  0  0  0  0  0  0  0  0  0
    0.9597   -0.1070   -0.2131 N   0  0  0  0  0  0  0  0  0  0  0  0
    0.0397   -1.0862    0.3445 C   0  0  2  0  0  0  0  0  0  0  0  0
   -0.9003   -1.4875   -0.6999 N   0  0  0  0  0  0  0  0  0  0  0  0
   -1.7509   -0.3546   -0.8364 C   0  0  0  0  0  0  0  0  0  0  0  0
   -2.4092   -0.0527   -1.8809 O   0  0  0  0  0  0  0  0  0  0  0  0
   -1.7456    0.3907    0.3938 N   0  0  0  0  0  0  0  0  0  0  0  0
   -2.4669    1.5827    0.6561 C   0  0  0  0  0  0  0  0  0  0  0  0
   -2.4156    2.1752    1.7449 O   0  0  0  0  0  0  0  0  0  0  0  0
   -0.8692   -0.3375    1.2525 C   0  0  0  0  0  0  0  0  0  0  0  0
   -0.9132   -0.3057    2.5060 O   0  0  0  0  0  0  0  0  0  0  0  0
    3.1998    0.8646   -1.6834 H   0  0  0  0  0  0  0  0  0  0  0  0
    3.8250    1.2332   -0.0567 H   0  0  0  0  0  0  0  0  0  0  0  0
    0.5859    0.7406   -0.6925 H   0  0  0  0  0  0  0  0  0  0  0  0
    0.5375   -1.9221    0.8166 H   0  0  0  0  0  0  0  0  0  0  0  0
   -0.9384   -2.3894   -1.2211 H   0  0  0  0  0  0  0  0  0  0  0  0
   -3.0858    1.9910   -0.1236 H   0  0  0  0  0  0  0  0  0  0  0  0
  1  2  1  0
  2  3  2  0
  2  4  1  0
  4  5  1  0
  5  6  1  0
  6  7  1  0
  7  8  2  0
  7  9  1  0
  9 10  1  0
 10 11  2  0
  9 12  1  0
 12 13  2  0
 12  5  1  0
  1 14  1  0
  1 15  1  0
  4 16  1  0
  5 17  1  1
  6 18  1  0
 10 19  1  0
M  END
$$$$
