
     RDKit          3D

 20 19  0  0  0  0  0  0  0  0999 V2000
    3.2304   -2.3621    0.0389 O   0  0  0  0  0  0  0  0  0  0  0  0
    3.0986   -1.1053    0.1281 N   0  0  0  0  0  4  0  0  0  0  0  0
    4.1770   -0.3024    0.3943 O   0  0  0  0  0  1  0  0  0  0  0  0
    1.8675   -0.5299   -0.0418 O   0  0  0  0  0  0  0  0  0  0  0  0
    1.2996    0.3467    0.9163 C   0  0  0  0  0  0  0  0  0  0  0  0
   -0.0698    0.8119    0.4311 C   0  0  1  0  0  0  0  0  0  0  0  0
    0.0642    1.4794   -0.7826 O   0  0  0  0  0  0  0  0  0  0  0  0
   -0.9670   -0.3973    0.2589 C   0  0  1  0  0  0  0  0  0  0  0  0
   -1.1235   -1.0910    1.4577 O   0  0  0  0  0  0  0  0  0  0  0  0
   -2.3308    0.0819   -0.2169 C   0  0  0  0  0  0  0  0  0  0  0  0
   -2.1378    0.7719   -1.4184 O   0  0  0  0  0  0  0  0  0  0  0  0
    1.2067   -0.1969    1.8602 H   0  0  0  0  0  0  0  0  0  0  0  0
    1.9426    1.2329    1.0975 H   0  0  0  0  0  0  0  0  0  0  0  0
   -0.5308    1.5056    1.1587 H   0  0  0  0  0  0  0  0  0  0  0  0
    0.7070    0.9338   -1.3258 H   0  0  0  0  0  0  0  0  0  0  0  0
   -0.5670   -1.1063   -0.4759 H   0  0  0  0  0  0  0  0  0  0  0  0
   -1.7452   -1.8430    1.2574 H   0  0  0  0  0  0  0  0  0  0  0  0
   -2.6732    0.8196    0.5439 H   0  0  0  0  0  0  0  0  0  0  0  0
   -3.0260   -0.7610   -0.3253 H   0  0  0  0  0  0  0  0  0  0  0  0
   -2.4223    1.7115   -1.3394 H   0  0  0  0  0  0  0  0  0  0  0  0
  1  2  2  0
  2  3  1  0
  2  4  1  0
  4  5  1  0
  5  6  1  0
  6  7  1  0
  6  8  1  0
  8  9  1  0
  8 10  1  0
 10 11  1  0
  5 12  1  0
  5 13  1  0
  6 14  1  1
  7 15  1  0
  8 16  1  6
  9 17  1  0
 10 18  1  0
 10 19  1  0
 11 20  1  0
M  CHG  2   2   1   3  -1
M  END
$$$$

     RDKit          3D

 20 19  0  0  0  0  0  0  0  0999 V2000
    3.7788    1.1707    0.3353 O   0  0  0  0  0  0  0  0  0  0  0  0
    3.2382    0.0554    0.4506 N   0  0  0  0  0  4  0  0  0  0  0  0
    4.0413   -1.0484    0.3857 O   0  0  0  0  0  1  0  0  0  0  0  0
    1.8755   -0.0410    0.6366 O   0  0  0  0  0  0  0  0  0  0  0  0
    1.0626    0.9262    0.0217 C   0  0  0  0  0  0  0  0  0  0  0  0
   -0.4012    0.6595    0.3371 C   0  0  1  0  0  0  0  0  0  0  0  0
   -1.1564    1.6347   -0.2884 O   0  0  0  0  0  0  0  0  0  0  0  0
   -0.7069   -0.7337   -0.1535 C   0  0  1  0  0  0  0  0  0  0  0  0
    0.0965   -1.6147    0.5327 O   0  0  0  0  0  0  0  0  0  0  0  0
   -2.1724   -1.0815    0.0303 C   0  0  0  0  0  0  0  0  0  0  0  0
   -2.9862   -0.1929   -0.6620 O   0  0  0  0  0  0  0  0  0  0  0  0
    1.1990    0.8600   -1.0759 H   0  0  0  0  0  0  0  0  0  0  0  0
    1.3668    1.9458    0.3469 H   0  0  0  0  0  0  0  0  0  0  0  0
   -0.5803    0.7410    1.4265 H   0  0  0  0  0  0  0  0  0  0  0  0
   -0.6024    2.4182   -0.5759 H   0  0  0  0  0  0  0  0  0  0  0  0
   -0.5134   -0.7307   -1.2527 H   0  0  0  0  0  0  0  0  0  0  0  0
    0.4779   -2.3288   -0.0037 H   0  0  0  0  0  0  0  0  0  0  0  0
   -2.3409   -2.0962   -0.3839 H   0  0  0  0  0  0  0  0  0  0  0  0
   -2.4308   -1.1378    1.1097 H   0  0  0  0  0  0  0  0  0  0  0  0
   -3.2459    0.5941   -0.1214 H   0  0  0  0  0  0  0  0  0  0  0  0
  1  2  2  0
  2  3  1  0
  2  4  1  0
  4  5  1  0
  5  6  1  0
  6  7  1  0
  6  8  1  0
  8  9  1  0
  8 10  1  0
 10 11  1  0
  5 12  1  0
  5 13  1  0
  6 14  1  1
  7 15  1  0
  8 16  1  6
  9 17  1  0
 10 18  1  0
 10 19  1  0
 11 20  1  0
M  CHG  2   2   1   3  -1
M  END
$$$$

     RDKit          3D

 20 19  0  0  0  0  0  0  0  0999 V2000
    4.0206   -1.3345   -0.0802 O   0  0  0  0  0  0  0  0  0  0  0  0
    3.2477   -0.5771    0.3408 N   0  0  0  0  0  4  0  0  0  0  0  0
    3.7158    0.8242    0.2503 O   0  0  0  0  0  1  0  0  0  0  0  0
    2.0769   -0.6267    0.9614 O   0  0  0  0  0  0  0  0  0  0  0  0
    0.7788   -0.9140    0.3944 C   0  0  0  0  0  0  0  0  0  0  0  0
    0.2207    0.4738    0.4380 C   0  0  1  0  0  0  0  0  0  0  0  0
    1.0071    1.2007   -0.5442 O   0  0  0  0  0  0  0  0  0  0  0  0
   -1.1758    0.7660    0.2417 C   0  0  1  0  0  0  0  0  0  0  0  0
   -1.4909    0.7179   -1.1331 O   0  0  0  0  0  0  0  0  0  0  0  0
   -2.0805   -0.3044    0.8687 C   0  0  0  0  0  0  0  0  0  0  0  0
   -3.3522   -0.0402    0.3844 O   0  0  0  0  0  0  0  0  0  0  0  0
    0.8386   -1.4566   -0.5076 H   0  0  0  0  0  0  0  0  0  0  0  0
    0.2707   -1.5543    1.1918 H   0  0  0  0  0  0  0  0  0  0  0  0
    0.6207    0.9633    1.3866 H   0  0  0  0  0  0  0  0  0  0  0  0
    0.9593    0.5486   -1.3331 H   0  0  0  0  0  0  0  0  0  0  0  0
   -1.4515    1.7238    0.6729 H   0  0  0  0  0  0  0  0  0  0  0  0
   -0.9309    1.4863   -1.5165 H   0  0  0  0  0  0  0  0  0  0  0  0
   -2.1054   -0.1425    1.9579 H   0  0  0  0  0  0  0  0  0  0  0  0
   -1.7693   -1.2954    0.5448 H   0  0  0  0  0  0  0  0  0  0  0  0
   -3.4004   -0.4590   -0.5507 H   0  0  0  0  0  0  0  0  0  0  0  0
  1  2  2  0
  2  3  1  0
  2  4  1  0
  4  5  1  0
  5  6  1  0
  6  7  1  0
  6  8  1  0
  8  9  1  0
  8 10  1  0
 10 11  1  0
  5 12  1  0
  5 13  1  0
  6 14  1  1
  7 15  1  0
  8 16  1  1
  9 17  1  0
 10 18  1  0
 10 19  1  0
 11 20  1  0
M  CHG  2   2   1   3  -1
M  END
$$$$

     RDKit          3D

 20 19  0  0  0  0  0  0  0  0999 V2000
    3.2444    0.3058    1.5586 O   0  0  0  0  0  0  0  0  0  0  0  0
    2.9493   -0.1598    0.4748 N   0  0  0  0  0  4  0  0  0  0  0  0
    3.6464    0.4400   -0.6251 O   0  0  0  0  0  1  0  0  0  0  0  0
    2.0967   -1.1837    0.1472 O   0  0  0  0  0  0  0  0  0  0  0  0
    0.7140   -0.9397    0.6458 C   0  0  0  0  0  0  0  0  0  0  0  0
    0.2377   -0.1019   -0.4631 C   0  0  1  0  0  0  0  0  0  0  0  0
    0.6880   -0.6029   -1.7169 O   0  0  0  0  0  0  0  0  0  0  0  0
   -1.1218    0.3405   -0.6010 C   0  0  1  0  0  0  0  0  0  0  0  0
   -1.8306   -0.6048   -1.4189 O   0  0  0  0  0  0  0  0  0  0  0  0
   -1.8838    0.2631    0.7329 C   0  0  0  0  0  0  0  0  0  0  0  0
   -1.3375    1.0896    1.6766 O   0  0  0  0  0  0  0  0  0  0  0  0
    0.8409   -0.5109    1.6267 H   0  0  0  0  0  0  0  0  0  0  0  0
    0.2926   -1.9397    0.6470 H   0  0  0  0  0  0  0  0  0  0  0  0
    0.9198    0.8482   -0.3547 H   0  0  0  0  0  0  0  0  0  0  0  0
    0.3891   -0.0324   -2.4172 H   0  0  0  0  0  0  0  0  0  0  0  0
   -1.2144    1.3466   -0.9812 H   0  0  0  0  0  0  0  0  0  0  0  0
   -1.9185   -0.1332   -2.3434 H   0  0  0  0  0  0  0  0  0  0  0  0
   -1.8584   -0.8231    1.0595 H   0  0  0  0  0  0  0  0  0  0  0  0
   -2.9383    0.4811    0.5264 H   0  0  0  0  0  0  0  0  0  0  0  0
   -1.9158    1.9172    1.8260 H   0  0  0  0  0  0  0  0  0  0  0  0
  1  2  2  0
  2  3  1  0
  2  4  1  0
  4  5  1  0
  5  6  1  0
  6  7  1  0
  6  8  1  0
  8  9  1  0
  8 10  1  0
 10 11  1  0
  5 12  1  0
  5 13  1  0
  6 14  1  1
  7 15  1  0
  8 16  1  6
  9 17  1  0
 10 18  1  0
 10 19  1  0
 11 20  1  0
M  CHG  2   2   1   3  -1
M  END
$$$$

     RDKit          3D

 20 19  0  0  0  0  0  0  0  0999 V2000
    3.2719    2.2187   -0.5604 O   0  0  0  0  0  0  0  0  0  0  0  0
    3.1358    1.0994   -1.0516 N   0  0  0  0  0  4  0  0  0  0  0  0
    4.2162    0.4132   -1.5040 O   0  0  0  0  0  1  0  0  0  0  0  0
    1.8979    0.5475   -1.1417 O   0  0  0  0  0  0  0  0  0  0  0  0
    1.4765   -0.3046   -0.1125 C   0  0  0  0  0  0  0  0  0  0  0  0
    0.0978   -0.8551   -0.3152 C   0  0  1  0  0  0  0  0  0  0  0  0
   -0.1680   -1.6832    0.7976 O   0  0  0  0  0  0  0  0  0  0  0  0
   -0.9711    0.1874   -0.3473 C   0  0  1  0  0  0  0  0  0  0  0  0
   -0.8543    1.0820   -1.3834 O   0  0  0  0  0  0  0  0  0  0  0  0
   -2.3112   -0.5499   -0.4534 C   0  0  0  0  0  0  0  0  0  0  0  0
   -3.3804    0.3084   -0.3964 O   0  0  0  0  0  0  0  0  0  0  0  0
    1.5391    0.1643    0.8897 H   0  0  0  0  0  0  0  0  0  0  0  0
    2.1775   -1.1701   -0.0946 H   0  0  0  0  0  0  0  0  0  0  0  0
    0.0380   -1.4643   -1.2395 H   0  0  0  0  0  0  0  0  0  0  0  0
    0.1667   -1.1505    1.5866 H   0  0  0  0  0  0  0  0  0  0  0  0
   -0.9883    0.7738    0.6029 H   0  0  0  0  0  0  0  0  0  0  0  0
   -1.5118    1.8234   -1.1968 H   0  0  0  0  0  0  0  0  0  0  0  0
   -2.2824   -1.1338   -1.3928 H   0  0  0  0  0  0  0  0  0  0  0  0
   -2.3082   -1.2987    0.3789 H   0  0  0  0  0  0  0  0  0  0  0  0
   -3.2417    0.9922    0.2954 H   0  0  0  0  0  0  0  0  0  0  0  0
  1  2  2  0
  2  3  1  0
  2  4  1  0
  4  5  1  0
  5  6  1  0
  6  7  1  0
  6  8  1  0
  8  9  1  0
  8 10  1  0
 10 11  1  0
  5 12  1  0
  5 13  1  0
  6 14  1  6
  7 15  1  0
  8 16  1  1
  9 17  1  0
 10 18  1  0
 10 19  1  0
 11 20  1  0
M  CHG  2   2   1   3  -1
M  END
$$$$

     RDKit          3D

 20 19  0  0  0  0  0  0  0  0999 V2000
    4.1751    0.7989   -0.6414 O   0  0  0  0  0  0  0  0  0  0  0  0
    3.6601   -0.3033   -0.3914 N   0  0  0  0  0  4  0  0  0  0  0  0
    4.2533   -1.4173   -0.9241 O   0  0  0  0  0  1  0  0  0  0  0  0
    2.5378   -0.4207    0.3880 O   0  0  0  0  0  0  0  0  0  0  0  0
    1.3124   -0.1386   -0.2406 C   0  0  0  0  0  0  0  0  0  0  0  0
    0.1256   -0.2894    0.6797 C   0  0  1  0  0  0  0  0  0  0  0  0
    0.1934    0.5593    1.7823 O   0  0  0  0  0  0  0  0  0  0  0  0
   -1.0771    0.1308   -0.1400 C   0  0  1  0  0  0  0  0  0  0  0  0
   -1.1497   -0.7067   -1.2341 O   0  0  0  0  0  0  0  0  0  0  0  0
   -2.3450    0.1409    0.6746 C   0  0  0  0  0  0  0  0  0  0  0  0
   -3.3892    0.5715   -0.1297 O   0  0  0  0  0  0  0  0  0  0  0  0
    1.1527   -0.7493   -1.1258 H   0  0  0  0  0  0  0  0  0  0  0  0
    1.3394    0.9354   -0.5473 H   0  0  0  0  0  0  0  0  0  0  0  0
    0.0048   -1.3366    1.0380 H   0  0  0  0  0  0  0  0  0  0  0  0
   -0.2328    1.4375    1.5835 H   0  0  0  0  0  0  0  0  0  0  0  0
   -0.8641    1.1576   -0.5274 H   0  0  0  0  0  0  0  0  0  0  0  0
   -1.4600   -0.1879   -2.0253 H   0  0  0  0  0  0  0  0  0  0  0  0
   -2.1987    0.8522    1.5148 H   0  0  0  0  0  0  0  0  0  0  0  0
   -2.5033   -0.8867    1.0558 H   0  0  0  0  0  0  0  0  0  0  0  0
   -3.5348   -0.1475   -0.8081 H   0  0  0  0  0  0  0  0  0  0  0  0
  1  2  2  0
  2  3  1  0
  2  4  1  0
  4  5  1  0
  5  6  1  0
  6  7  1  0
  6  8  1  0
  8  9  1  0
  8 10  1  0
 10 11  1  0
  5 12  1  0
  5 13  1  0
  6 14  1  1
  7 15  1  0
  8 16  1  6
  9 17  1  0
 10 18  1  0
 10 19  1  0
 11 20  1  0
M  CHG  2   2   1   3  -1
M  END
$$$$

     RDKit          3D

 20 19  0  0  0  0  0  0  0  0999 V2000
    3.2172    1.5820   -1.3815 O   0  0  0  0  0  0  0  0  0  0  0  0
    3.0360    0.4023   -1.0726 N   0  0  0  0  0  4  0  0  0  0  0  0
    4.0409   -0.4987   -1.2447 O   0  0  0  0  0  1  0  0  0  0  0  0
    1.8434    0.0028   -0.5644 O   0  0  0  0  0  0  0  0  0  0  0  0
    1.4722    0.0405    0.7822 C   0  0  0  0  0  0  0  0  0  0  0  0
    0.0558   -0.5028    0.8798 C   0  0  1  0  0  0  0  0  0  0  0  0
   -0.3982   -0.5022    2.1931 O   0  0  0  0  0  0  0  0  0  0  0  0
   -0.8071    0.3460   -0.0152 C   0  0  1  0  0  0  0  0  0  0  0  0
   -0.2978    0.2985   -1.3012 O   0  0  0  0  0  0  0  0  0  0  0  0
   -2.2495   -0.1224    0.0178 C   0  0  0  0  0  0  0  0  0  0  0  0
   -2.9753    0.7433   -0.8221 O   0  0  0  0  0  0  0  0  0  0  0  0
    2.0953   -0.5732    1.4488 H   0  0  0  0  0  0  0  0  0  0  0  0
    1.4664    1.1142    1.0915 H   0  0  0  0  0  0  0  0  0  0  0  0
    0.0341   -1.5450    0.5186 H   0  0  0  0  0  0  0  0  0  0  0  0
   -1.1585   -1.1502    2.2311 H   0  0  0  0  0  0  0  0  0  0  0  0
   -0.7461    1.4213    0.3119 H   0  0  0  0  0  0  0  0  0  0  0  0
   -0.8556   -0.2746   -1.8949 H   0  0  0  0  0  0  0  0  0  0  0  0
   -2.2792   -1.1516   -0.3799 H   0  0  0  0  0  0  0  0  0  0  0  0
   -2.6187   -0.0602    1.0600 H   0  0  0  0  0  0  0  0  0  0  0  0
   -2.8752    0.4300   -1.7527 H   0  0  0  0  0  0  0  0  0  0  0  0
  1  2  2  0
  2  3  1  0
  2  4  1  0
  4  5  1  0
  5  6  1  0
  6  7  1  0
  6  8  1  0
  8  9  1  0
  8 10  1  0
 10 11  1  0
  5 12  1  0
  5 13  1  0
  6 14  1  6
  7 15  1  0
  8 16  1  1
  9 17  1  0
 10 18  1  0
 10 19  1  0
 11 20  1  0
M  CHG  2   2   1   3  -1
M  END
$$$$

     RDKit          3D

 20 19  0  0  0  0  0  0  0  0999 V2000
    3.1869    1.3861   -1.2751 O   0  0  0  0  0  0  0  0  0  0  0  0
    3.3316    0.2077   -0.9588 N   0  0  0  0  0  4  0  0  0  0  0  0
    4.5178   -0.4080   -1.1995 O   0  0  0  0  0  1  0  0  0  0  0  0
    2.2791   -0.4511   -0.3677 O   0  0  0  0  0  0  0  0  0  0  0  0
    1.0420    0.1962   -0.1303 C   0  0  0  0  0  0  0  0  0  0  0  0
    0.1175   -0.8039    0.5244 C   0  0  1  0  0  0  0  0  0  0  0  0
    0.6614   -1.2508    1.7306 O   0  0  0  0  0  0  0  0  0  0  0  0
   -1.2448   -0.1634    0.7898 C   0  0  1  0  0  0  0  0  0  0  0  0
   -1.1703    0.9109    1.6397 O   0  0  0  0  0  0  0  0  0  0  0  0
   -1.9213    0.2186   -0.5093 C   0  0  0  0  0  0  0  0  0  0  0  0
   -3.2072    0.6575   -0.1686 O   0  0  0  0  0  0  0  0  0  0  0  0
    0.6126    0.5908   -1.0491 H   0  0  0  0  0  0  0  0  0  0  0  0
    1.2366    1.0266    0.5766 H   0  0  0  0  0  0  0  0  0  0  0  0
   -0.0556   -1.6784   -0.1133 H   0  0  0  0  0  0  0  0  0  0  0  0
    0.3951   -2.1876    1.8721 H   0  0  0  0  0  0  0  0  0  0  0  0
   -1.8677   -0.9398    1.3055 H   0  0  0  0  0  0  0  0  0  0  0  0
   -0.8514    1.7492    1.2058 H   0  0  0  0  0  0  0  0  0  0  0  0
   -1.3547    1.0917   -0.9189 H   0  0  0  0  0  0  0  0  0  0  0  0
   -1.9276   -0.6356   -1.1991 H   0  0  0  0  0  0  0  0  0  0  0  0
   -3.7801    0.4833   -0.9673 H   0  0  0  0  0  0  0  0  0  0  0  0
  1  2  2  0
  2  3  1  0
  2  4  1  0
  4  5  1  0
  5  6  1  0
  6  7  1  0
  6  8  1  0
  8  9  1  0
  8 10  1  0
 10 11  1  0
  5 12  1  0
  5 13  1  0
  6 14  1  6
  7 15  1  0
  8 16  1  1
  9 17  1  0
 10 18  1  0
 10 19  1  0
 11 20  1  0
M  CHG  2   2   1   3  -1
M  END
$$$$
