
     RDKit          3D

 22 22  0  0  0  0  0  0  0  0999 V2000
    3.6335    0.1992    1.1871 C   0  0  0  0  0  0  0  0  0  0  0  0
    3.0082   -0.2895    0.0240 O   0  0  0  0  0  0  0  0  0  0  0  0
    1.6975    0.0105   -0.3246 C   0  0  0  0  0  0  0  0  0  0  0  0
    0.7280    0.5337    0.3620 C   0  0  0  0  0  0  0  0  0  0  0  0
   -0.4718    0.6464   -0.4649 C   0  0  2  0  0  0  0  0  0  0  0  0
   -1.6343   -0.1750    0.0571 C   0  0  1  0  0  0  0  0  0  0  0  0
   -2.0210    0.2949    1.3089 O   0  0  0  0  0  0  0  0  0  0  0  0
   -2.8045    0.1152   -0.8911 C   0  0  0  0  0  0  0  0  0  0  0  0
   -3.9611   -0.5200   -0.4842 O   0  0  0  0  0  0  0  0  0  0  0  0
   -0.1234    0.1381   -1.7157 O   0  0  0  0  0  0  0  0  0  0  0  0
    1.1973   -0.2593   -1.6625 C   0  0  0  0  0  0  0  0  0  0  0  0
    1.8188   -0.7652   -2.6373 O   0  0  0  0  0  0  0  0  0  0  0  0
    4.6682   -0.1991    1.2074 H   0  0  0  0  0  0  0  0  0  0  0  0
    3.1301   -0.2439    2.0936 H   0  0  0  0  0  0  0  0  0  0  0  0
    3.6082    1.2880    1.2859 H   0  0  0  0  0  0  0  0  0  0  0  0
    0.8466    0.8300    1.4074 H   0  0  0  0  0  0  0  0  0  0  0  0
   -0.7867    1.7174   -0.5107 H   0  0  0  0  0  0  0  0  0  0  0  0
   -1.3882   -1.2406    0.0459 H   0  0  0  0  0  0  0  0  0  0  0  0
   -1.6864   -0.2749    2.0453 H   0  0  0  0  0  0  0  0  0  0  0  0
   -2.5254   -0.1996   -1.9172 H   0  0  0  0  0  0  0  0  0  0  0  0
   -2.8961    1.2217   -0.9106 H   0  0  0  0  0  0  0  0  0  0  0  0
   -4.0375   -0.4142    0.4944 H   0  0  0  0  0  0  0  0  0  0  0  0
  1  2  1  0
  2  3  1  0
  3  4  2  0
  4  5  1  0
  5  6  1  0
  6  7  1  0
  6  8  1  0
  8  9  1  0
  5 10  1  0
 10 11  1  0
 11 12  2  0
 11  3  1  0
  1 13  1  0
  1 14  1  0
  1 15  1  0
  4 16  1  0
  5 17  1  6
  6 18  1  1
  7 19  1  0
  8 20  1  0
  8 21  1  0
  9 22  1  0
M  END
$$$$

     RDKit          3D

 22 22  0  0  0  0  0  0  0  0999 V2000
    3.1393    1.0647    0.6391 C   0  0  0  0  0  0  0  0  0  0  0  0
    2.7557   -0.2982    0.5627 O   0  0  0  0  0  0  0  0  0  0  0  0
    1.5528   -0.6653   -0.0598 C   0  0  0  0  0  0  0  0  0  0  0  0
    0.5297    0.1592   -0.1680 C   0  0  0  0  0  0  0  0  0  0  0  0
   -0.5480   -0.5646   -0.8714 C   0  0  2  0  0  0  0  0  0  0  0  0
   -1.7617   -0.6078    0.0578 C   0  0  1  0  0  0  0  0  0  0  0  0
   -1.4352   -1.1772    1.2758 O   0  0  0  0  0  0  0  0  0  0  0  0
   -2.2138    0.8064    0.2687 C   0  0  0  0  0  0  0  0  0  0  0  0
   -2.5313    1.3572   -0.9722 O   0  0  0  0  0  0  0  0  0  0  0  0
   -0.0460   -1.8246   -1.1369 O   0  0  0  0  0  0  0  0  0  0  0  0
    1.2381   -1.9493   -0.6633 C   0  0  0  0  0  0  0  0  0  0  0  0
    2.0312   -2.9334   -0.7071 O   0  0  0  0  0  0  0  0  0  0  0  0
    4.1159    1.1021    1.1699 H   0  0  0  0  0  0  0  0  0  0  0  0
    3.1972    1.4608   -0.3812 H   0  0  0  0  0  0  0  0  0  0  0  0
    2.4277    1.6350    1.2741 H   0  0  0  0  0  0  0  0  0  0  0  0
    0.4875    1.2054    0.2006 H   0  0  0  0  0  0  0  0  0  0  0  0
   -0.8375   -0.0204   -1.8200 H   0  0  0  0  0  0  0  0  0  0  0  0
   -2.5616   -1.2406   -0.3856 H   0  0  0  0  0  0  0  0  0  0  0  0
   -1.6280   -0.5642    2.0469 H   0  0  0  0  0  0  0  0  0  0  0  0
   -1.4437    1.3927    0.7783 H   0  0  0  0  0  0  0  0  0  0  0  0
   -3.1634    0.7606    0.8471 H   0  0  0  0  0  0  0  0  0  0  0  0
   -3.3048    0.9013   -1.3657 H   0  0  0  0  0  0  0  0  0  0  0  0
  1  2  1  0
  2  3  1  0
  3  4  2  0
  4  5  1  0
  5  6  1  0
  6  7  1  0
  6  8  1  0
  8  9  1  0
  5 10  1  0
 10 11  1  0
 11 12  2  0
 11  3  1  0
  1 13  1  0
  1 14  1  0
  1 15  1  0
  4 16  1  0
  5 17  1  6
  6 18  1  6
  7 19  1  0
  8 20  1  0
  8 21  1  0
  9 22  1  0
M  END
$$$$

     RDKit          3D

 22 22  0  0  0  0  0  0  0  0999 V2000
    3.7567    0.2046    0.4527 C   0  0  0  0  0  0  0  0  0  0  0  0
    2.8563    0.9564   -0.3012 O   0  0  0  0  0  0  0  0  0  0  0  0
    1.4843    0.8589   -0.2354 C   0  0  0  0  0  0  0  0  0  0  0  0
    0.7356    0.3610    0.7256 C   0  0  0  0  0  0  0  0  0  0  0  0
   -0.7080    0.4460    0.4047 C   0  0  2  0  0  0  0  0  0  0  0  0
   -1.2887   -0.9507    0.2342 C   0  0  1  0  0  0  0  0  0  0  0  0
   -1.3113   -1.6630    1.4174 O   0  0  0  0  0  0  0  0  0  0  0  0
   -2.7055   -0.7846   -0.2892 C   0  0  0  0  0  0  0  0  0  0  0  0
   -3.4635   -0.0958    0.6556 O   0  0  0  0  0  0  0  0  0  0  0  0
   -0.7444    1.0517   -0.8589 O   0  0  0  0  0  0  0  0  0  0  0  0
    0.5550    1.3032   -1.2522 C   0  0  0  0  0  0  0  0  0  0  0  0
    0.9129    1.8512   -2.3562 O   0  0  0  0  0  0  0  0  0  0  0  0
    3.6788   -0.8882    0.2973 H   0  0  0  0  0  0  0  0  0  0  0  0
    3.5936    0.4516    1.5240 H   0  0  0  0  0  0  0  0  0  0  0  0
    4.7864    0.5507    0.1867 H   0  0  0  0  0  0  0  0  0  0  0  0
    1.1165   -0.0729    1.6661 H   0  0  0  0  0  0  0  0  0  0  0  0
   -1.2695    1.0239    1.1700 H   0  0  0  0  0  0  0  0  0  0  0  0
   -0.6440   -1.4749   -0.4970 H   0  0  0  0  0  0  0  0  0  0  0  0
   -2.2251   -1.9395    1.6419 H   0  0  0  0  0  0  0  0  0  0  0  0
   -2.7331   -0.2504   -1.2444 H   0  0  0  0  0  0  0  0  0  0  0  0
   -3.1683   -1.8015   -0.3745 H   0  0  0  0  0  0  0  0  0  0  0  0
   -3.2147    0.8622    0.5756 H   0  0  0  0  0  0  0  0  0  0  0  0
  1  2  1  0
  2  3  1  0
  3  4  2  0
  4  5  1  0
  5  6  1  0
  6  7  1  0
  6  8  1  0
  8  9  1  0
  5 10  1  0
 10 11  1  0
 11 12  2  0
 11  3  1  0
  1 13  1  0
  1 14  1  0
  1 15  1  0
  4 16  1  0
  5 17  1  1
  6 18  1  6
  7 19  1  0
  8 20  1  0
  8 21  1  0
  9 22  1  0
M  END
$$$$

     RDKit          3D

 22 22  0  0  0  0  0  0  0  0999 V2000
    3.9968    0.3282    0.6009 C   0  0  0  0  0  0  0  0  0  0  0  0
    2.7373    0.4282    1.1821 O   0  0  0  0  0  0  0  0  0  0  0  0
    1.5737    0.1012    0.4540 C   0  0  0  0  0  0  0  0  0  0  0  0
    0.4706    0.8021    0.4535 C   0  0  0  0  0  0  0  0  0  0  0  0
   -0.5225    0.1622   -0.4141 C   0  0  2  0  0  0  0  0  0  0  0  0
   -1.8203   -0.1441    0.3080 C   0  0  1  0  0  0  0  0  0  0  0  0
   -2.3678    1.0359    0.7768 O   0  0  0  0  0  0  0  0  0  0  0  0
   -2.7595   -0.7161   -0.7543 C   0  0  0  0  0  0  0  0  0  0  0  0
   -4.0218   -0.9742   -0.2293 O   0  0  0  0  0  0  0  0  0  0  0  0
    0.0969   -0.9719   -0.9191 O   0  0  0  0  0  0  0  0  0  0  0  0
    1.3712   -1.0431   -0.4147 C   0  0  0  0  0  0  0  0  0  0  0  0
    2.2504   -1.9285   -0.6372 O   0  0  0  0  0  0  0  0  0  0  0  0
    4.7452    0.6415    1.3797 H   0  0  0  0  0  0  0  0  0  0  0  0
    4.2547   -0.7091    0.3019 H   0  0  0  0  0  0  0  0  0  0  0  0
    4.1404    0.9743   -0.2847 H   0  0  0  0  0  0  0  0  0  0  0  0
    0.3629    1.7244    1.0360 H   0  0  0  0  0  0  0  0  0  0  0  0
   -0.7690    0.8972   -1.2231 H   0  0  0  0  0  0  0  0  0  0  0  0
   -1.6953   -0.8318    1.1459 H   0  0  0  0  0  0  0  0  0  0  0  0
   -2.4498    1.6503   -0.0028 H   0  0  0  0  0  0  0  0  0  0  0  0
   -2.2948   -1.6595   -1.1043 H   0  0  0  0  0  0  0  0  0  0  0  0
   -2.7943    0.0479   -1.5715 H   0  0  0  0  0  0  0  0  0  0  0  0
   -4.5049   -0.1172   -0.0838 H   0  0  0  0  0  0  0  0  0  0  0  0
  1  2  1  0
  2  3  1  0
  3  4  2  0
  4  5  1  0
  5  6  1  0
  6  7  1  0
  6  8  1  0
  8  9  1  0
  5 10  1  0
 10 11  1  0
 11 12  2  0
 11  3  1  0
  1 13  1  0
  1 14  1  0
  1 15  1  0
  4 16  1  0
  5 17  1  6
  6 18  1  1
  7 19  1  0
  8 20  1  0
  8 21  1  0
  9 22  1  0
M  END
$$$$

     RDKit          3D

 22 22  0  0  0  0  0  0  0  0999 V2000
    3.7105    0.5201    0.3091 C   0  0  0  0  0  0  0  0  0  0  0  0
    2.5282    0.1366    0.9850 O   0  0  0  0  0  0  0  0  0  0  0  0
    1.4339   -0.4051    0.3567 C   0  0  0  0  0  0  0  0  0  0  0  0
    0.4068    0.2684   -0.1083 C   0  0  0  0  0  0  0  0  0  0  0  0
   -0.5492   -0.6724   -0.7066 C   0  0  2  0  0  0  0  0  0  0  0  0
   -1.9323   -0.5326   -0.0982 C   0  0  1  0  0  0  0  0  0  0  0  0
   -1.9383   -0.7789    1.2630 O   0  0  0  0  0  0  0  0  0  0  0  0
   -2.3795    0.8917   -0.3740 C   0  0  0  0  0  0  0  0  0  0  0  0
   -3.6626    1.1196    0.1005 O   0  0  0  0  0  0  0  0  0  0  0  0
   -0.0024   -1.9265   -0.5536 O   0  0  0  0  0  0  0  0  0  0  0  0
    1.2088   -1.8138    0.0904 C   0  0  0  0  0  0  0  0  0  0  0  0
    2.0295   -2.7243    0.4226 O   0  0  0  0  0  0  0  0  0  0  0  0
    4.0943   -0.4248   -0.1770 H   0  0  0  0  0  0  0  0  0  0  0  0
    4.4888    0.8355    1.0170 H   0  0  0  0  0  0  0  0  0  0  0  0
    3.5247    1.2537   -0.4967 H   0  0  0  0  0  0  0  0  0  0  0  0
    0.3224    1.3624   -0.0368 H   0  0  0  0  0  0  0  0  0  0  0  0
   -0.6542   -0.3967   -1.7853 H   0  0  0  0  0  0  0  0  0  0  0  0
   -2.5768   -1.2759   -0.6200 H   0  0  0  0  0  0  0  0  0  0  0  0
   -1.9911    0.0901    1.7359 H   0  0  0  0  0  0  0  0  0  0  0  0
   -1.6952    1.5534    0.1966 H   0  0  0  0  0  0  0  0  0  0  0  0
   -2.3269    1.0564   -1.4686 H   0  0  0  0  0  0  0  0  0  0  0  0
   -4.0392    1.8632   -0.4516 H   0  0  0  0  0  0  0  0  0  0  0  0
  1  2  1  0
  2  3  1  0
  3  4  2  0
  4  5  1  0
  5  6  1  0
  6  7  1  0
  6  8  1  0
  8  9  1  0
  5 10  1  0
 10 11  1  0
 11 12  2  0
 11  3  1  0
  1 13  1  0
  1 14  1  0
  1 15  1  0
  4 16  1  0
  5 17  1  6
  6 18  1  6
  7 19  1  0
  8 20  1  0
  8 21  1  0
  9 22  1  0
M  END
$$$$

     RDKit          3D

 22 22  0  0  0  0  0  0  0  0999 V2000
   -3.7313    0.8313   -0.1859 C   0  0  0  0  0  0  0  0  0  0  0  0
   -2.7179   -0.0150   -0.6983 O   0  0  0  0  0  0  0  0  0  0  0  0
   -1.5387   -0.2222    0.0289 C   0  0  0  0  0  0  0  0  0  0  0  0
   -0.4440    0.4943   -0.1112 C   0  0  0  0  0  0  0  0  0  0  0  0
    0.5762   -0.0077    0.8074 C   0  0  2  0  0  0  0  0  0  0  0  0
    1.8225   -0.4855    0.0876 C   0  0  1  0  0  0  0  0  0  0  0  0
    1.5201   -1.4725   -0.8423 O   0  0  0  0  0  0  0  0  0  0  0  0
    2.4953    0.7026   -0.5686 C   0  0  0  0  0  0  0  0  0  0  0  0
    3.6734    0.2129   -1.1562 O   0  0  0  0  0  0  0  0  0  0  0  0
   -0.0308   -1.0714    1.4826 O   0  0  0  0  0  0  0  0  0  0  0  0
   -1.3292   -1.2435    1.0409 C   0  0  0  0  0  0  0  0  0  0  0  0
   -2.1676   -2.1099    1.4329 O   0  0  0  0  0  0  0  0  0  0  0  0
   -3.3593    1.8646   -0.0307 H   0  0  0  0  0  0  0  0  0  0  0  0
   -4.1349    0.4458    0.7660 H   0  0  0  0  0  0  0  0  0  0  0  0
   -4.5504    0.8765   -0.9293 H   0  0  0  0  0  0  0  0  0  0  0  0
   -0.3209    1.3343   -0.8079 H   0  0  0  0  0  0  0  0  0  0  0  0
    0.8996    0.7550    1.5503 H   0  0  0  0  0  0  0  0  0  0  0  0
    2.4938   -0.8978    0.8709 H   0  0  0  0  0  0  0  0  0  0  0  0
    1.9819   -2.3153   -0.6044 H   0  0  0  0  0  0  0  0  0  0  0  0
    2.7599    1.4257    0.2286 H   0  0  0  0  0  0  0  0  0  0  0  0
    1.8611    1.1210   -1.3612 H   0  0  0  0  0  0  0  0  0  0  0  0
    4.2413   -0.2232   -0.4713 H   0  0  0  0  0  0  0  0  0  0  0  0
  1  2  1  0
  2  3  1  0
  3  4  2  0
  4  5  1  0
  5  6  1  0
  6  7  1  0
  6  8  1  0
  8  9  1  0
  5 10  1  0
 10 11  1  0
 11 12  2  0
 11  3  1  0
  1 13  1  0
  1 14  1  0
  1 15  1  0
  4 16  1  0
  5 17  1  1
  6 18  1  1
  7 19  1  0
  8 20  1  0
  8 21  1  0
  9 22  1  0
M  END
$$$$

     RDKit          3D

 22 22  0  0  0  0  0  0  0  0999 V2000
    3.2797   -0.5846    1.0214 C   0  0  0  0  0  0  0  0  0  0  0  0
    2.6397   -1.1190   -0.1097 O   0  0  0  0  0  0  0  0  0  0  0  0
    1.4343   -0.5357   -0.5500 C   0  0  0  0  0  0  0  0  0  0  0  0
    0.6815    0.2944    0.1397 C   0  0  0  0  0  0  0  0  0  0  0  0
   -0.4868    0.6783   -0.6630 C   0  0  2  0  0  0  0  0  0  0  0  0
   -1.7754    0.3715    0.0691 C   0  0  1  0  0  0  0  0  0  0  0  0
   -2.8623    0.7120   -0.6920 O   0  0  0  0  0  0  0  0  0  0  0  0
   -1.7801   -1.0890    0.4852 C   0  0  0  0  0  0  0  0  0  0  0  0
   -2.9380   -1.3363    1.2387 O   0  0  0  0  0  0  0  0  0  0  0  0
   -0.3478    0.0091   -1.8588 O   0  0  0  0  0  0  0  0  0  0  0  0
    0.8045   -0.7444   -1.8435 C   0  0  0  0  0  0  0  0  0  0  0  0
    1.2543   -1.4939   -2.7806 O   0  0  0  0  0  0  0  0  0  0  0  0
    3.5653    0.4888    0.8947 H   0  0  0  0  0  0  0  0  0  0  0  0
    2.6104   -0.6963    1.8950 H   0  0  0  0  0  0  0  0  0  0  0  0
    4.2370   -1.1253    1.1828 H   0  0  0  0  0  0  0  0  0  0  0  0
    0.9573    0.6040    1.1578 H   0  0  0  0  0  0  0  0  0  0  0  0
   -0.4133    1.7957   -0.7926 H   0  0  0  0  0  0  0  0  0  0  0  0
   -1.7746    0.9922    0.9895 H   0  0  0  0  0  0  0  0  0  0  0  0
   -2.6348    1.4991   -1.2365 H   0  0  0  0  0  0  0  0  0  0  0  0
   -0.8951   -1.2701    1.1214 H   0  0  0  0  0  0  0  0  0  0  0  0
   -1.8204   -1.7583   -0.3952 H   0  0  0  0  0  0  0  0  0  0  0  0
   -3.7355   -0.9926    0.7265 H   0  0  0  0  0  0  0  0  0  0  0  0
  1  2  1  0
  2  3  1  0
  3  4  2  0
  4  5  1  0
  5  6  1  0
  6  7  1  0
  6  8  1  0
  8  9  1  0
  5 10  1  0
 10 11  1  0
 11 12  2  0
 11  3  1  0
  1 13  1  0
  1 14  1  0
  1 15  1  0
  4 16  1  0
  5 17  1  6
  6 18  1  1
  7 19  1  0
  8 20  1  0
  8 21  1  0
  9 22  1  0
M  END
$$$$

     RDKit          3D

 22 22  0  0  0  0  0  0  0  0999 V2000
    3.7854    0.3410   -0.6087 C   0  0  0  0  0  0  0  0  0  0  0  0
    2.6291    0.9254   -0.0513 O   0  0  0  0  0  0  0  0  0  0  0  0
    1.4623    0.2113    0.1692 C   0  0  0  0  0  0  0  0  0  0  0  0
    0.4621   -0.0410   -0.6504 C   0  0  0  0  0  0  0  0  0  0  0  0
   -0.5927   -0.8467   -0.0023 C   0  0  2  0  0  0  0  0  0  0  0  0
   -1.9266   -0.1623    0.0048 C   0  0  1  0  0  0  0  0  0  0  0  0
   -1.8561    1.0873    0.5913 O   0  0  0  0  0  0  0  0  0  0  0  0
   -2.5252   -0.0971   -1.3894 C   0  0  0  0  0  0  0  0  0  0  0  0
   -3.8029    0.4124   -1.3852 O   0  0  0  0  0  0  0  0  0  0  0  0
   -0.0872   -1.0318    1.2879 O   0  0  0  0  0  0  0  0  0  0  0  0
    1.1392   -0.4185    1.4410 C   0  0  0  0  0  0  0  0  0  0  0  0
    1.8122   -0.4249    2.4859 O   0  0  0  0  0  0  0  0  0  0  0  0
    4.1615   -0.5010    0.0221 H   0  0  0  0  0  0  0  0  0  0  0  0
    3.5859    0.0251   -1.6377 H   0  0  0  0  0  0  0  0  0  0  0  0
    4.5906    1.1179   -0.5713 H   0  0  0  0  0  0  0  0  0  0  0  0
    0.4189    0.3011   -1.6750 H   0  0  0  0  0  0  0  0  0  0  0  0
   -0.7230   -1.8268   -0.5256 H   0  0  0  0  0  0  0  0  0  0  0  0
   -2.6199   -0.8007    0.6056 H   0  0  0  0  0  0  0  0  0  0  0  0
   -1.6259    0.9504    1.5475 H   0  0  0  0  0  0  0  0  0  0  0  0
   -1.8964    0.5341   -2.0652 H   0  0  0  0  0  0  0  0  0  0  0  0
   -2.5495   -1.1003   -1.8586 H   0  0  0  0  0  0  0  0  0  0  0  0
   -3.8418    1.3450   -1.0633 H   0  0  0  0  0  0  0  0  0  0  0  0
  1  2  1  0
  2  3  1  0
  3  4  2  0
  4  5  1  0
  5  6  1  0
  6  7  1  0
  6  8  1  0
  8  9  1  0
  5 10  1  0
 10 11  1  0
 11 12  2  0
 11  3  1  0
  1 13  1  0
  1 14  1  0
  1 15  1  0
  4 16  1  0
  5 17  1  6
  6 18  1  1
  7 19  1  0
  8 20  1  0
  8 21  1  0
  9 22  1  0
M  END
$$$$
