
     RDKit          3D

 27 27  0  0  0  0  0  0  0  0999 V2000
    0.1902    2.8370   -0.3943 N   0  0  0  0  0  0  0  0  0  0  0  0
   -0.0428    1.4661    0.0863 C   0  0  1  0  0  0  0  0  0  0  0  0
   -0.8777    0.7651   -0.9298 C   0  0  0  0  0  0  0  0  0  0  0  0
   -1.0393   -0.6666   -0.5488 C   0  0  2  0  0  0  0  0  0  0  0  0
   -1.9480   -0.7378    0.6751 C   0  0  0  0  0  0  0  0  0  0  0  0
   -2.1217   -2.0742    1.0614 O   0  0  0  0  0  0  0  0  0  0  0  0
    0.2306   -1.3967   -0.3080 C   0  0  2  0  0  0  0  0  0  0  0  0
    0.0462   -2.2350    0.8006 O   0  0  0  0  0  0  0  0  0  0  0  0
    1.4379   -0.5525   -0.1516 C   0  0  2  0  0  0  0  0  0  0  0  0
    2.3315   -1.2585    0.6872 O   0  0  0  0  0  0  0  0  0  0  0  0
    1.2307    0.7860    0.4390 C   0  0  1  0  0  0  0  0  0  0  0  0
    2.2939    1.6129    0.0052 O   0  0  0  0  0  0  0  0  0  0  0  0
   -0.5212    3.4960   -0.0276 H   0  0  0  0  0  0  0  0  0  0  0  0
    0.1707    2.8285   -1.4521 H   0  0  0  0  0  0  0  0  0  0  0  0
   -0.6660    1.5930    1.0075 H   0  0  0  0  0  0  0  0  0  0  0  0
   -1.9047    1.2345   -0.8905 H   0  0  0  0  0  0  0  0  0  0  0  0
   -0.5349    0.9143   -1.9715 H   0  0  0  0  0  0  0  0  0  0  0  0
   -1.6279   -1.1682   -1.3705 H   0  0  0  0  0  0  0  0  0  0  0  0
   -1.5158   -0.1862    1.5293 H   0  0  0  0  0  0  0  0  0  0  0  0
   -2.9259   -0.2799    0.4212 H   0  0  0  0  0  0  0  0  0  0  0  0
   -3.1038   -2.2673    1.1327 H   0  0  0  0  0  0  0  0  0  0  0  0
    0.4161   -2.0979   -1.1716 H   0  0  0  0  0  0  0  0  0  0  0  0
    0.7847   -2.8886    0.8250 H   0  0  0  0  0  0  0  0  0  0  0  0
    1.9793   -0.4672   -1.1377 H   0  0  0  0  0  0  0  0  0  0  0  0
    3.2262   -1.3144    0.3208 H   0  0  0  0  0  0  0  0  0  0  0  0
    1.3530    0.7549    1.5615 H   0  0  0  0  0  0  0  0  0  0  0  0
    3.1389    1.3028    0.4225 H   0  0  0  0  0  0  0  0  0  0  0  0
  1  2  1  0
  2  3  1  0
  3  4  1  0
  4  5  1  0
  5  6  1  0
  4  7  1  0
  7  8  1  0
  7  9  1  0
  9 10  1  0
  9 11  1  0
 11 12  1  0
 11  2  1  0
  1 13  1  0
  1 14  1  0
  2 15  1  1
  3 16  1  0
  3 17  1  0
  4 18  1  6
  5 19  1  0
  5 20  1  0
  6 21  1  0
  7 22  1  6
  8 23  1  0
  9 24  1  6
 10 25  1  0
 11 26  1  1
 12 27  1  0
M  END
$$$$

     RDKit          3D

 27 27  0  0  0  0  0  0  0  0999 V2000
   -1.5553    1.7831    0.7540 N   0  0  0  0  0  0  0  0  0  0  0  0
   -1.3272    0.8636   -0.3706 C   0  0  1  0  0  0  0  0  0  0  0  0
    0.0381    1.0538   -0.9338 C   0  0  0  0  0  0  0  0  0  0  0  0
    1.0496    0.3168   -0.1273 C   0  0  2  0  0  0  0  0  0  0  0  0
    2.4740    0.6233   -0.5062 C   0  0  0  0  0  0  0  0  0  0  0  0
    2.7180    1.9843   -0.3302 O   0  0  0  0  0  0  0  0  0  0  0  0
    0.7377   -1.1614   -0.2235 C   0  0  2  0  0  0  0  0  0  0  0  0
    0.5929   -1.5732   -1.5480 O   0  0  0  0  0  0  0  0  0  0  0  0
   -0.5664   -1.3478    0.5458 C   0  0  2  0  0  0  0  0  0  0  0  0
   -0.9319   -2.6683    0.6473 O   0  0  0  0  0  0  0  0  0  0  0  0
   -1.6801   -0.5310   -0.0135 C   0  0  1  0  0  0  0  0  0  0  0  0
   -2.6888   -0.4738    0.9769 O   0  0  0  0  0  0  0  0  0  0  0  0
   -2.5086    1.6322    1.1121 H   0  0  0  0  0  0  0  0  0  0  0  0
   -0.8777    1.6455    1.5160 H   0  0  0  0  0  0  0  0  0  0  0  0
   -2.0597    1.2078   -1.1590 H   0  0  0  0  0  0  0  0  0  0  0  0
    0.2794    2.1346   -0.9005 H   0  0  0  0  0  0  0  0  0  0  0  0
    0.0470    0.7453   -2.0100 H   0  0  0  0  0  0  0  0  0  0  0  0
    0.9110    0.6004    0.9380 H   0  0  0  0  0  0  0  0  0  0  0  0
    2.6545    0.3894   -1.5695 H   0  0  0  0  0  0  0  0  0  0  0  0
    3.1367    0.0661    0.1836 H   0  0  0  0  0  0  0  0  0  0  0  0
    2.2260    2.3363    0.4712 H   0  0  0  0  0  0  0  0  0  0  0  0
    1.5080   -1.7565    0.2901 H   0  0  0  0  0  0  0  0  0  0  0  0
    0.9694   -2.4880   -1.6971 H   0  0  0  0  0  0  0  0  0  0  0  0
   -0.3507   -0.9710    1.5810 H   0  0  0  0  0  0  0  0  0  0  0  0
   -0.4119   -3.0611    1.4133 H   0  0  0  0  0  0  0  0  0  0  0  0
   -2.1644   -1.0306   -0.8844 H   0  0  0  0  0  0  0  0  0  0  0  0
   -2.2195   -0.3195    1.8446 H   0  0  0  0  0  0  0  0  0  0  0  0
  1  2  1  0
  2  3  1  0
  3  4  1  0
  4  5  1  0
  5  6  1  0
  4  7  1  0
  7  8  1  0
  7  9  1  0
  9 10  1  0
  9 11  1  0
 11 12  1  0
 11  2  1  0
  1 13  1  0
  1 14  1  0
  2 15  1  6
  3 16  1  0
  3 17  1  0
  4 18  1  1
  5 19  1  0
  5 20  1  0
  6 21  1  0
  7 22  1  1
  8 23  1  0
  9 24  1  1
 10 25  1  0
 11 26  1  6
 12 27  1  0
M  END
$$$$

     RDKit          3D

 27 27  0  0  0  0  0  0  0  0999 V2000
   -2.4121   -1.5814    0.3917 N   0  0  0  0  0  0  0  0  0  0  0  0
   -1.1696   -0.7952    0.4501 C   0  0  1  0  0  0  0  0  0  0  0  0
   -0.3423   -1.1784   -0.7152 C   0  0  0  0  0  0  0  0  0  0  0  0
    0.8354   -0.3281   -0.9971 C   0  0  2  0  0  0  0  0  0  0  0  0
    2.1231   -0.9303   -0.4132 C   0  0  0  0  0  0  0  0  0  0  0  0
    2.0438   -1.0747    0.9569 O   0  0  0  0  0  0  0  0  0  0  0  0
    0.7105    1.1064   -0.6411 C   0  0  2  0  0  0  0  0  0  0  0  0
    2.0043    1.5677   -0.3002 O   0  0  0  0  0  0  0  0  0  0  0  0
   -0.1814    1.4158    0.5046 C   0  0  2  0  0  0  0  0  0  0  0  0
    0.4210    1.1275    1.7436 O   0  0  0  0  0  0  0  0  0  0  0  0
   -1.4920    0.6750    0.4732 C   0  0  1  0  0  0  0  0  0  0  0  0
   -2.3404    1.0795   -0.5246 O   0  0  0  0  0  0  0  0  0  0  0  0
   -3.2088   -1.0139    0.0708 H   0  0  0  0  0  0  0  0  0  0  0  0
   -2.6390   -2.0091    1.2942 H   0  0  0  0  0  0  0  0  0  0  0  0
   -0.6752   -1.0452    1.3973 H   0  0  0  0  0  0  0  0  0  0  0  0
    0.0278   -2.2318   -0.5462 H   0  0  0  0  0  0  0  0  0  0  0  0
   -1.0133   -1.2706   -1.6127 H   0  0  0  0  0  0  0  0  0  0  0  0
    1.0098   -0.3720   -2.1150 H   0  0  0  0  0  0  0  0  0  0  0  0
    2.2523   -1.9454   -0.8741 H   0  0  0  0  0  0  0  0  0  0  0  0
    2.9951   -0.3284   -0.6823 H   0  0  0  0  0  0  0  0  0  0  0  0
    2.9949   -1.1360    1.2869 H   0  0  0  0  0  0  0  0  0  0  0  0
    0.3798    1.7257   -1.5124 H   0  0  0  0  0  0  0  0  0  0  0  0
    2.1151    2.5191   -0.5359 H   0  0  0  0  0  0  0  0  0  0  0  0
   -0.4248    2.5014    0.4783 H   0  0  0  0  0  0  0  0  0  0  0  0
   -0.0266    1.6982    2.4058 H   0  0  0  0  0  0  0  0  0  0  0  0
   -2.0078    0.8779    1.4485 H   0  0  0  0  0  0  0  0  0  0  0  0
   -1.9797    0.9463   -1.4319 H   0  0  0  0  0  0  0  0  0  0  0  0
  1  2  1  0
  2  3  1  0
  3  4  1  0
  4  5  1  0
  5  6  1  0
  4  7  1  0
  7  8  1  0
  7  9  1  0
  9 10  1  0
  9 11  1  0
 11 12  1  0
 11  2  1  0
  1 13  1  0
  1 14  1  0
  2 15  1  1
  3 16  1  0
  3 17  1  0
  4 18  1  6
  5 19  1  0
  5 20  1  0
  6 21  1  0
  7 22  1  6
  8 23  1  0
  9 24  1  1
 10 25  1  0
 11 26  1  1
 12 27  1  0
M  END
$$$$

     RDKit          3D

 27 27  0  0  0  0  0  0  0  0999 V2000
   -2.4428    1.4739   -0.1688 N   0  0  0  0  0  0  0  0  0  0  0  0
   -1.1687    0.7552   -0.3299 C   0  0  1  0  0  0  0  0  0  0  0  0
   -0.2004    1.3656    0.6249 C   0  0  0  0  0  0  0  0  0  0  0  0
    1.1096    0.6263    0.6166 C   0  0  2  0  0  0  0  0  0  0  0  0
    1.8201    0.9668   -0.6876 C   0  0  0  0  0  0  0  0  0  0  0  0
    3.0328    0.2850   -0.6998 O   0  0  0  0  0  0  0  0  0  0  0  0
    0.9874   -0.8409    0.7940 C   0  0  2  0  0  0  0  0  0  0  0  0
    1.9161   -1.4659   -0.0708 O   0  0  0  0  0  0  0  0  0  0  0  0
   -0.3702   -1.4074    0.6789 C   0  0  2  0  0  0  0  0  0  0  0  0
   -0.2424   -2.7391    0.2137 O   0  0  0  0  0  0  0  0  0  0  0  0
   -1.3343   -0.7146   -0.1873 C   0  0  1  0  0  0  0  0  0  0  0  0
   -2.6449   -0.9425    0.2974 O   0  0  0  0  0  0  0  0  0  0  0  0
   -3.0882    1.2275   -0.9439 H   0  0  0  0  0  0  0  0  0  0  0  0
   -2.1914    2.4880   -0.1450 H   0  0  0  0  0  0  0  0  0  0  0  0
   -0.8301    1.0096   -1.3654 H   0  0  0  0  0  0  0  0  0  0  0  0
   -0.0081    2.4076    0.3120 H   0  0  0  0  0  0  0  0  0  0  0  0
   -0.5673    1.3555    1.6792 H   0  0  0  0  0  0  0  0  0  0  0  0
    1.7416    1.1062    1.4212 H   0  0  0  0  0  0  0  0  0  0  0  0
    2.0284    2.0344   -0.7748 H   0  0  0  0  0  0  0  0  0  0  0  0
    1.1860    0.5856   -1.5269 H   0  0  0  0  0  0  0  0  0  0  0  0
    3.5930    0.6393    0.0537 H   0  0  0  0  0  0  0  0  0  0  0  0
    1.3768   -1.0874    1.8269 H   0  0  0  0  0  0  0  0  0  0  0  0
    1.5352   -2.2258   -0.5421 H   0  0  0  0  0  0  0  0  0  0  0  0
   -0.8332   -1.5214    1.7027 H   0  0  0  0  0  0  0  0  0  0  0  0
   -0.4278   -2.7283   -0.7780 H   0  0  0  0  0  0  0  0  0  0  0  0
   -1.3408   -1.1867   -1.2136 H   0  0  0  0  0  0  0  0  0  0  0  0
   -2.6366   -1.4666    1.1304 H   0  0  0  0  0  0  0  0  0  0  0  0
  1  2  1  0
  2  3  1  0
  3  4  1  0
  4  5  1  0
  5  6  1  0
  4  7  1  0
  7  8  1  0
  7  9  1  0
  9 10  1  0
  9 11  1  0
 11 12  1  0
 11  2  1  0
  1 13  1  0
  1 14  1  0
  2 15  1  6
  3 16  1  0
  3 17  1  0
  4 18  1  1
  5 19  1  0
  5 20  1  0
  6 21  1  0
  7 22  1  1
  8 23  1  0
  9 24  1  1
 10 25  1  0
 11 26  1  6
 12 27  1  0
M  END
$$$$

     RDKit          3D

 27 27  0  0  0  0  0  0  0  0999 V2000
   -2.2175    1.7679    0.0874 N   0  0  0  0  0  0  0  0  0  0  0  0
   -1.1205    0.8997   -0.3573 C   0  0  1  0  0  0  0  0  0  0  0  0
    0.0868    1.2669    0.4061 C   0  0  0  0  0  0  0  0  0  0  0  0
    1.1425    0.2434    0.5345 C   0  0  2  0  0  0  0  0  0  0  0  0
    2.3479    0.5860   -0.3505 C   0  0  0  0  0  0  0  0  0  0  0  0
    2.8321    1.8276    0.0759 O   0  0  0  0  0  0  0  0  0  0  0  0
    0.7281   -1.1594    0.2794 C   0  0  2  0  0  0  0  0  0  0  0  0
    1.0360   -1.5962   -1.0189 O   0  0  0  0  0  0  0  0  0  0  0  0
   -0.7327   -1.4068    0.5591 C   0  0  2  0  0  0  0  0  0  0  0  0
   -1.0012   -2.7257    0.1702 O   0  0  0  0  0  0  0  0  0  0  0  0
   -1.5638   -0.5054   -0.2872 C   0  0  1  0  0  0  0  0  0  0  0  0
   -2.8918   -0.6002    0.1916 O   0  0  0  0  0  0  0  0  0  0  0  0
   -1.9011    2.7329    0.2714 H   0  0  0  0  0  0  0  0  0  0  0  0
   -2.7223    1.3750    0.9004 H   0  0  0  0  0  0  0  0  0  0  0  0
   -0.9636    1.1837   -1.4393 H   0  0  0  0  0  0  0  0  0  0  0  0
   -0.2344    1.6551    1.4175 H   0  0  0  0  0  0  0  0  0  0  0  0
    0.5430    2.1764   -0.0872 H   0  0  0  0  0  0  0  0  0  0  0  0
    1.5490    0.2857    1.5882 H   0  0  0  0  0  0  0  0  0  0  0  0
    1.9284    0.7291   -1.3781 H   0  0  0  0  0  0  0  0  0  0  0  0
    3.1096   -0.2023   -0.3223 H   0  0  0  0  0  0  0  0  0  0  0  0
    3.6906    2.0125   -0.3795 H   0  0  0  0  0  0  0  0  0  0  0  0
    1.2937   -1.8639    0.9574 H   0  0  0  0  0  0  0  0  0  0  0  0
    1.9166   -2.0863   -1.0339 H   0  0  0  0  0  0  0  0  0  0  0  0
   -0.9611   -1.3453    1.6338 H   0  0  0  0  0  0  0  0  0  0  0  0
   -1.1306   -2.7301   -0.8144 H   0  0  0  0  0  0  0  0  0  0  0  0
   -1.6123   -0.9720   -1.3151 H   0  0  0  0  0  0  0  0  0  0  0  0
   -3.1517   -1.5485    0.1169 H   0  0  0  0  0  0  0  0  0  0  0  0
  1  2  1  0
  2  3  1  0
  3  4  1  0
  4  5  1  0
  5  6  1  0
  4  7  1  0
  7  8  1  0
  7  9  1  0
  9 10  1  0
  9 11  1  0
 11 12  1  0
 11  2  1  0
  1 13  1  0
  1 14  1  0
  2 15  1  6
  3 16  1  0
  3 17  1  0
  4 18  1  1
  5 19  1  0
  5 20  1  0
  6 21  1  0
  7 22  1  1
  8 23  1  0
  9 24  1  1
 10 25  1  0
 11 26  1  6
 12 27  1  0
M  END
$$$$

     RDKit          3D

 27 27  0  0  0  0  0  0  0  0999 V2000
   -1.6931    2.2164   -0.0289 N   0  0  0  0  0  0  0  0  0  0  0  0
   -0.9088    1.0560   -0.4868 C   0  0  1  0  0  0  0  0  0  0  0  0
    0.4951    1.1927   -0.0714 C   0  0  0  0  0  0  0  0  0  0  0  0
    1.2306   -0.0163    0.3346 C   0  0  2  0  0  0  0  0  0  0  0  0
    2.5088   -0.2407   -0.4858 C   0  0  0  0  0  0  0  0  0  0  0  0
    3.3774    0.8254   -0.3469 O   0  0  0  0  0  0  0  0  0  0  0  0
    0.4472   -1.3004    0.2527 C   0  0  2  0  0  0  0  0  0  0  0  0
    0.2419   -1.7247   -1.0555 O   0  0  0  0  0  0  0  0  0  0  0  0
   -0.8951   -0.9899    0.9300 C   0  0  2  0  0  0  0  0  0  0  0  0
   -1.5623   -2.1238    1.2915 O   0  0  0  0  0  0  0  0  0  0  0  0
   -1.6397   -0.1557   -0.0763 C   0  0  1  0  0  0  0  0  0  0  0  0
   -2.9134    0.1297    0.4670 O   0  0  0  0  0  0  0  0  0  0  0  0
   -1.4997    2.3597    0.9864 H   0  0  0  0  0  0  0  0  0  0  0  0
   -1.4950    3.0558   -0.6105 H   0  0  0  0  0  0  0  0  0  0  0  0
   -0.9602    1.1263   -1.6144 H   0  0  0  0  0  0  0  0  0  0  0  0
    1.0940    1.7017   -0.8851 H   0  0  0  0  0  0  0  0  0  0  0  0
    0.5400    1.9376    0.7787 H   0  0  0  0  0  0  0  0  0  0  0  0
    1.6001    0.0470    1.4011 H   0  0  0  0  0  0  0  0  0  0  0  0
    2.2755   -0.4930   -1.5337 H   0  0  0  0  0  0  0  0  0  0  0  0
    2.9829   -1.1519   -0.0351 H   0  0  0  0  0  0  0  0  0  0  0  0
    3.5574    0.9342    0.6146 H   0  0  0  0  0  0  0  0  0  0  0  0
    0.9705   -2.0670    0.8464 H   0  0  0  0  0  0  0  0  0  0  0  0
    0.8955   -2.4652   -1.2511 H   0  0  0  0  0  0  0  0  0  0  0  0
   -0.7037   -0.3383    1.8132 H   0  0  0  0  0  0  0  0  0  0  0  0
   -2.5124   -2.1388    1.0158 H   0  0  0  0  0  0  0  0  0  0  0  0
   -1.8507   -0.8380   -0.9508 H   0  0  0  0  0  0  0  0  0  0  0  0
   -3.5830   -0.5387    0.1947 H   0  0  0  0  0  0  0  0  0  0  0  0
  1  2  1  0
  2  3  1  0
  3  4  1  0
  4  5  1  0
  5  6  1  0
  4  7  1  0
  7  8  1  0
  7  9  1  0
  9 10  1  0
  9 11  1  0
 11 12  1  0
 11  2  1  0
  1 13  1  0
  1 14  1  0
  2 15  1  6
  3 16  1  0
  3 17  1  0
  4 18  1  1
  5 19  1  0
  5 20  1  0
  6 21  1  0
  7 22  1  1
  8 23  1  0
  9 24  1  1
 10 25  1  0
 11 26  1  6
 12 27  1  0
M  END
$$$$

     RDKit          3D

 27 27  0  0  0  0  0  0  0  0999 V2000
   -2.5493    1.5284    0.2383 N   0  0  0  0  0  0  0  0  0  0  0  0
   -1.3864    0.7770   -0.2619 C   0  0  1  0  0  0  0  0  0  0  0  0
   -0.1407    1.2679    0.3916 C   0  0  0  0  0  0  0  0  0  0  0  0
    0.9372    0.2838    0.5645 C   0  0  2  0  0  0  0  0  0  0  0  0
    2.2727    0.9301    0.1647 C   0  0  0  0  0  0  0  0  0  0  0  0
    2.5585    2.0299    0.9345 O   0  0  0  0  0  0  0  0  0  0  0  0
    0.8420   -0.9869   -0.1684 C   0  0  2  0  0  0  0  0  0  0  0  0
    1.6194   -0.9313   -1.3501 O   0  0  0  0  0  0  0  0  0  0  0  0
   -0.5016   -1.4726   -0.5346 C   0  0  2  0  0  0  0  0  0  0  0  0
   -0.6831   -1.5073   -1.9354 O   0  0  0  0  0  0  0  0  0  0  0  0
   -1.6418   -0.6609    0.0193 C   0  0  1  0  0  0  0  0  0  0  0  0
   -1.7442   -0.8704    1.3733 O   0  0  0  0  0  0  0  0  0  0  0  0
   -3.4008    0.8898    0.2196 H   0  0  0  0  0  0  0  0  0  0  0  0
   -2.3626    1.6991    1.2429 H   0  0  0  0  0  0  0  0  0  0  0  0
   -1.3544    0.9983   -1.3552 H   0  0  0  0  0  0  0  0  0  0  0  0
    0.2189    2.1527   -0.2123 H   0  0  0  0  0  0  0  0  0  0  0  0
   -0.4487    1.7339    1.3744 H   0  0  0  0  0  0  0  0  0  0  0  0
    1.0543    0.0797    1.6697 H   0  0  0  0  0  0  0  0  0  0  0  0
    3.0404    0.1458    0.3260 H   0  0  0  0  0  0  0  0  0  0  0  0
    2.2873    1.1402   -0.9356 H   0  0  0  0  0  0  0  0  0  0  0  0
    3.5512    2.1852    0.8636 H   0  0  0  0  0  0  0  0  0  0  0  0
    1.3448   -1.7917    0.4466 H   0  0  0  0  0  0  0  0  0  0  0  0
    1.9491   -1.8539   -1.5612 H   0  0  0  0  0  0  0  0  0  0  0  0
   -0.6867   -2.5322   -0.1985 H   0  0  0  0  0  0  0  0  0  0  0  0
   -0.6507   -2.4126   -2.2937 H   0  0  0  0  0  0  0  0  0  0  0  0
   -2.5639   -0.9704   -0.5472 H   0  0  0  0  0  0  0  0  0  0  0  0
   -1.5607   -1.8515    1.5249 H   0  0  0  0  0  0  0  0  0  0  0  0
  1  2  1  0
  2  3  1  0
  3  4  1  0
  4  5  1  0
  5  6  1  0
  4  7  1  0
  7  8  1  0
  7  9  1  0
  9 10  1  0
  9 11  1  0
 11 12  1  0
 11  2  1  0
  1 13  1  0
  1 14  1  0
  2 15  1  6
  3 16  1  0
  3 17  1  0
  4 18  1  1
  5 19  1  0
  5 20  1  0
  6 21  1  0
  7 22  1  1
  8 23  1  0
  9 24  1  1
 10 25  1  0
 11 26  1  6
 12 27  1  0
M  END
$$$$

     RDKit          3D

 27 27  0  0  0  0  0  0  0  0999 V2000
    1.7972    2.2419    0.0094 N   0  0  0  0  0  0  0  0  0  0  0  0
    0.9646    1.1054    0.3907 C   0  0  1  0  0  0  0  0  0  0  0  0
   -0.3483    1.2432   -0.2906 C   0  0  0  0  0  0  0  0  0  0  0  0
   -1.2009    0.0361   -0.3142 C   0  0  2  0  0  0  0  0  0  0  0  0
   -2.3795    0.1271    0.6618 C   0  0  0  0  0  0  0  0  0  0  0  0
   -3.1990    1.2208    0.3466 O   0  0  0  0  0  0  0  0  0  0  0  0
   -0.5066   -1.2543   -0.0616 C   0  0  2  0  0  0  0  0  0  0  0  0
   -0.5789   -1.6374    1.2805 O   0  0  0  0  0  0  0  0  0  0  0  0
    0.9329   -1.2362   -0.5188 C   0  0  2  0  0  0  0  0  0  0  0  0
    1.4876   -2.4737   -0.1888 O   0  0  0  0  0  0  0  0  0  0  0  0
    1.7194   -0.1367    0.1034 C   0  0  1  0  0  0  0  0  0  0  0  0
    2.8280    0.1274   -0.7340 O   0  0  0  0  0  0  0  0  0  0  0  0
    1.4816    2.6952   -0.8550 H   0  0  0  0  0  0  0  0  0  0  0  0
    2.0280    2.8610    0.7913 H   0  0  0  0  0  0  0  0  0  0  0  0
    0.7922    1.2217    1.4973 H   0  0  0  0  0  0  0  0  0  0  0  0
   -0.1846    1.6697   -1.3190 H   0  0  0  0  0  0  0  0  0  0  0  0
   -0.9197    2.0536    0.2508 H   0  0  0  0  0  0  0  0  0  0  0  0
   -1.6849   -0.0292   -1.3308 H   0  0  0  0  0  0  0  0  0  0  0  0
   -3.0131   -0.7778    0.5603 H   0  0  0  0  0  0  0  0  0  0  0  0
   -2.0289    0.1611    1.7128 H   0  0  0  0  0  0  0  0  0  0  0  0
   -3.7317    0.9244   -0.4568 H   0  0  0  0  0  0  0  0  0  0  0  0
   -1.0081   -2.0789   -0.6465 H   0  0  0  0  0  0  0  0  0  0  0  0
   -0.9007   -2.5682    1.3906 H   0  0  0  0  0  0  0  0  0  0  0  0
    0.9355   -1.0853   -1.6233 H   0  0  0  0  0  0  0  0  0  0  0  0
    1.2260   -3.1683   -0.8711 H   0  0  0  0  0  0  0  0  0  0  0  0
    2.1780   -0.5101    1.0627 H   0  0  0  0  0  0  0  0  0  0  0  0
    3.3141   -0.7326   -0.8477 H   0  0  0  0  0  0  0  0  0  0  0  0
  1  2  1  0
  2  3  1  0
  3  4  1  0
  4  5  1  0
  5  6  1  0
  4  7  1  0
  7  8  1  0
  7  9  1  0
  9 10  1  0
  9 11  1  0
 11 12  1  0
 11  2  1  0
  1 13  1  0
  1 14  1  0
  2 15  1  1
  3 16  1  0
  3 17  1  0
  4 18  1  6
  5 19  1  0
  5 20  1  0
  6 21  1  0
  7 22  1  6
  8 23  1  0
  9 24  1  6
 10 25  1  0
 11 26  1  1
 12 27  1  0
M  END
$$$$
