
     RDKit          3D

 19 19  0  0  0  0  0  0  0  0999 V2000
    3.0928   -0.0860    0.0955 C   0  0  0  0  0  0  0  0  0  0  0  0
    1.8225   -0.1617   -0.6941 N   0  0  0  0  0  0  0  0  0  0  0  0
    0.6939    0.4608   -0.1389 C   0  0  0  0  0  0  0  0  0  0  0  0
    0.7530    1.0867    0.9579 O   0  0  0  0  0  0  0  0  0  0  0  0
   -0.6596    0.3992   -0.8046 C   0  0  1  0  0  0  0  0  0  0  0  0
   -1.1015   -0.9532   -1.1283 N   0  0  0  0  0  0  0  0  0  0  0  0
   -1.7120   -1.2335    0.1125 C   0  0  0  0  0  0  0  0  0  0  0  0
   -2.1741   -2.2995    0.6361 O   0  0  0  0  0  0  0  0  0  0  0  0
   -1.5650    0.1588    0.4761 C   0  0  2  0  0  0  0  0  0  0  0  0
   -2.6640    1.0295    0.6139 N   0  0  0  0  0  0  0  0  0  0  0  0
    2.8128    0.0426    1.1858 H   0  0  0  0  0  0  0  0  0  0  0  0
    3.7391    0.7114   -0.2501 H   0  0  0  0  0  0  0  0  0  0  0  0
    3.5687   -1.0585    0.0218 H   0  0  0  0  0  0  0  0  0  0  0  0
    1.7261   -0.6552   -1.5629 H   0  0  0  0  0  0  0  0  0  0  0  0
   -0.9702    1.1924   -1.4222 H   0  0  0  0  0  0  0  0  0  0  0  0
   -0.9782   -1.5170   -2.0118 H   0  0  0  0  0  0  0  0  0  0  0  0
   -0.9256    0.2834    1.4196 H   0  0  0  0  0  0  0  0  0  0  0  0
   -2.2609    1.9560    1.0041 H   0  0  0  0  0  0  0  0  0  0  0  0
   -3.1976    0.6438    1.4895 H   0  0  0  0  0  0  0  0  0  0  0  0
  1  2  1  0
  2  3  1  0
  3  4  2  0
  3  5  1  0
  5  6  1  0
  6  7  1  0
  7  8  2  0
  7  9  1  0
  9 10  1  0
  9  5  1  0
  1 11  1  0
  1 12  1  0
  1 13  1  0
  2 14  1  0
  5 15  1  6
  6 16  1  0
  9 17  1  1
 10 18  1  0
 10 19  1  0
M  END
$$$$

     RDKit          3D

 19 19  0  0  0  0  0  0  0  0999 V2000
    3.1475    0.1189   -0.4446 C   0  0  0  0  0  0  0  0  0  0  0  0
    1.6971    0.3028   -0.3657 N   0  0  0  0  0  0  0  0  0  0  0  0
    0.8618   -0.6386    0.2544 C   0  0  0  0  0  0  0  0  0  0  0  0
    1.4428   -1.6986    0.6889 O   0  0  0  0  0  0  0  0  0  0  0  0
   -0.5332   -0.5003    0.4716 C   0  0  1  0  0  0  0  0  0  0  0  0
   -0.7662    0.7119    1.3625 N   0  0  0  0  0  0  0  0  0  0  0  0
   -2.1210    0.5313    0.9979 C   0  0  0  0  0  0  0  0  0  0  0  0
   -3.1221    0.6814    1.6726 O   0  0  0  0  0  0  0  0  0  0  0  0
   -1.5660    0.1240   -0.3545 C   0  0  2  0  0  0  0  0  0  0  0  0
   -2.5020   -0.8037   -1.0134 N   0  0  0  0  0  0  0  0  0  0  0  0
    3.5298    1.1523   -0.1538 H   0  0  0  0  0  0  0  0  0  0  0  0
    3.5262   -0.2813   -1.3448 H   0  0  0  0  0  0  0  0  0  0  0  0
    3.4688   -0.4987    0.4469 H   0  0  0  0  0  0  0  0  0  0  0  0
    1.2443    1.1469   -0.7682 H   0  0  0  0  0  0  0  0  0  0  0  0
   -1.0136   -1.3542    1.0585 H   0  0  0  0  0  0  0  0  0  0  0  0
   -0.2239    1.3532    1.9229 H   0  0  0  0  0  0  0  0  0  0  0  0
   -1.3072    1.0162   -0.9487 H   0  0  0  0  0  0  0  0  0  0  0  0
   -2.2742   -0.8243   -2.0128 H   0  0  0  0  0  0  0  0  0  0  0  0
   -3.4888   -0.5393   -0.8691 H   0  0  0  0  0  0  0  0  0  0  0  0
  1  2  1  0
  2  3  1  0
  3  4  2  0
  3  5  1  0
  5  6  1  0
  6  7  1  0
  7  8  2  0
  7  9  1  0
  9 10  1  0
  9  5  1  0
  1 11  1  0
  1 12  1  0
  1 13  1  0
  2 14  1  0
  5 15  1  1
  6 16  1  0
  9 17  1  6
 10 18  1  0
 10 19  1  0
M  END
$$$$

     RDKit          3D

 19 19  0  0  0  0  0  0  0  0999 V2000
    3.1192    0.1641    0.2144 C   0  0  0  0  0  0  0  0  0  0  0  0
    1.7362    0.3986   -0.1849 N   0  0  0  0  0  0  0  0  0  0  0  0
    0.7490   -0.6206   -0.1267 C   0  0  0  0  0  0  0  0  0  0  0  0
    1.1118   -1.7499    0.2869 O   0  0  0  0  0  0  0  0  0  0  0  0
   -0.6373   -0.3864   -0.5267 C   0  0  1  0  0  0  0  0  0  0  0  0
   -1.4868   -1.5537   -0.3926 N   0  0  0  0  0  0  0  0  0  0  0  0
   -2.5488   -0.6754   -0.0534 C   0  0  0  0  0  0  0  0  0  0  0  0
   -3.7838   -0.7859   -0.2232 O   0  0  0  0  0  0  0  0  0  0  0  0
   -1.5348    0.2515    0.5029 C   0  0  2  0  0  0  0  0  0  0  0  0
   -1.8780    1.6216    0.2800 N   0  0  0  0  0  0  0  0  0  0  0  0
    3.1489   -0.8322    0.6928 H   0  0  0  0  0  0  0  0  0  0  0  0
    3.7737    0.1602   -0.6843 H   0  0  0  0  0  0  0  0  0  0  0  0
    3.4627    0.9124    0.9398 H   0  0  0  0  0  0  0  0  0  0  0  0
    1.5117    1.3678   -0.5190 H   0  0  0  0  0  0  0  0  0  0  0  0
   -0.7983    0.0913   -1.5070 H   0  0  0  0  0  0  0  0  0  0  0  0
   -1.4069   -2.5849   -0.4890 H   0  0  0  0  0  0  0  0  0  0  0  0
   -1.2946    0.0270    1.5532 H   0  0  0  0  0  0  0  0  0  0  0  0
   -1.7898    1.9086   -0.7161 H   0  0  0  0  0  0  0  0  0  0  0  0
   -1.4541    2.2858    0.9528 H   0  0  0  0  0  0  0  0  0  0  0  0
  1  2  1  0
  2  3  1  0
  3  4  2  0
  3  5  1  0
  5  6  1  0
  6  7  1  0
  7  8  2  0
  7  9  1  0
  9 10  1  0
  9  5  1  0
  1 11  1  0
  1 12  1  0
  1 13  1  0
  2 14  1  0
  5 15  1  6
  6 16  1  0
  9 17  1  1
 10 18  1  0
 10 19  1  0
M  END
$$$$

     RDKit          3D

 19 19  0  0  0  0  0  0  0  0999 V2000
    3.1967    0.2608   -0.2210 C   0  0  0  0  0  0  0  0  0  0  0  0
    1.8668   -0.2631   -0.4423 N   0  0  0  0  0  0  0  0  0  0  0  0
    0.8504   -0.1145    0.5268 C   0  0  0  0  0  0  0  0  0  0  0  0
    1.1775    0.4998    1.5874 O   0  0  0  0  0  0  0  0  0  0  0  0
   -0.5139   -0.6013    0.4049 C   0  0  1  0  0  0  0  0  0  0  0  0
   -1.3532   -0.3121    1.5504 N   0  0  0  0  0  0  0  0  0  0  0  0
   -1.6776    0.9368    0.9073 C   0  0  0  0  0  0  0  0  0  0  0  0
   -1.9845    2.1004    1.2356 O   0  0  0  0  0  0  0  0  0  0  0  0
   -1.4819    0.2152   -0.3915 C   0  0  2  0  0  0  0  0  0  0  0  0
   -2.6879   -0.5692   -0.6641 N   0  0  0  0  0  0  0  0  0  0  0  0
    3.4389    0.1881    0.8779 H   0  0  0  0  0  0  0  0  0  0  0  0
    3.2607    1.3562   -0.4507 H   0  0  0  0  0  0  0  0  0  0  0  0
    3.9620   -0.3244   -0.7435 H   0  0  0  0  0  0  0  0  0  0  0  0
    1.6242   -0.7622   -1.3190 H   0  0  0  0  0  0  0  0  0  0  0  0
   -0.5528   -1.6720    0.0893 H   0  0  0  0  0  0  0  0  0  0  0  0
   -1.6461   -0.7334    2.4489 H   0  0  0  0  0  0  0  0  0  0  0  0
   -1.1010    0.8071   -1.2137 H   0  0  0  0  0  0  0  0  0  0  0  0
   -3.4638    0.0606   -0.9391 H   0  0  0  0  0  0  0  0  0  0  0  0
   -2.9148   -1.0727    0.2356 H   0  0  0  0  0  0  0  0  0  0  0  0
  1  2  1  0
  2  3  1  0
  3  4  2  0
  3  5  1  0
  5  6  1  0
  6  7  1  0
  7  8  2  0
  7  9  1  0
  9 10  1  0
  9  5  1  0
  1 11  1  0
  1 12  1  0
  1 13  1  0
  2 14  1  0
  5 15  1  6
  6 16  1  0
  9 17  1  6
 10 18  1  0
 10 19  1  0
M  END
$$$$

     RDKit          3D

 19 19  0  0  0  0  0  0  0  0999 V2000
    2.9400   -0.3101   -1.0340 C   0  0  0  0  0  0  0  0  0  0  0  0
    1.7160   -0.4448   -0.2851 N   0  0  0  0  0  0  0  0  0  0  0  0
    0.8462    0.6572   -0.0585 C   0  0  0  0  0  0  0  0  0  0  0  0
    1.1139    1.7932   -0.5047 O   0  0  0  0  0  0  0  0  0  0  0  0
   -0.3824    0.3975    0.7250 C   0  0  1  0  0  0  0  0  0  0  0  0
   -1.2254    1.5737    0.9170 N   0  0  0  0  0  0  0  0  0  0  0  0
   -2.3424    0.7133    0.8153 C   0  0  0  0  0  0  0  0  0  0  0  0
   -3.4732    0.7347    1.3251 O   0  0  0  0  0  0  0  0  0  0  0  0
   -1.5564   -0.1263   -0.1053 C   0  0  2  0  0  0  0  0  0  0  0  0
   -1.6824   -1.5361    0.0310 N   0  0  0  0  0  0  0  0  0  0  0  0
    3.0094    0.6892   -1.4773 H   0  0  0  0  0  0  0  0  0  0  0  0
    2.9794   -1.1341   -1.7763 H   0  0  0  0  0  0  0  0  0  0  0  0
    3.7913   -0.4878   -0.3312 H   0  0  0  0  0  0  0  0  0  0  0  0
    1.4692   -1.4004    0.1029 H   0  0  0  0  0  0  0  0  0  0  0  0
   -0.2411   -0.1862    1.6314 H   0  0  0  0  0  0  0  0  0  0  0  0
   -1.1411    2.5848    1.0639 H   0  0  0  0  0  0  0  0  0  0  0  0
   -1.6001    0.2846   -1.1326 H   0  0  0  0  0  0  0  0  0  0  0  0
   -2.1011   -1.8416    0.9128 H   0  0  0  0  0  0  0  0  0  0  0  0
   -2.1197   -1.9609   -0.8196 H   0  0  0  0  0  0  0  0  0  0  0  0
  1  2  1  0
  2  3  1  0
  3  4  2  0
  3  5  1  0
  5  6  1  0
  6  7  1  0
  7  8  2  0
  7  9  1  0
  9 10  1  0
  9  5  1  0
  1 11  1  0
  1 12  1  0
  1 13  1  0
  2 14  1  0
  5 15  1  1
  6 16  1  0
  9 17  1  6
 10 18  1  0
 10 19  1  0
M  END
$$$$

     RDKit          3D

 19 19  0  0  0  0  0  0  0  0999 V2000
   -3.1321    0.6824   -0.1990 C   0  0  0  0  0  0  0  0  0  0  0  0
   -1.6744    0.8579   -0.1671 N   0  0  0  0  0  0  0  0  0  0  0  0
   -0.8548    0.1382    0.7300 C   0  0  0  0  0  0  0  0  0  0  0  0
   -1.4195   -0.6697    1.5126 O   0  0  0  0  0  0  0  0  0  0  0  0
    0.5935    0.2839    0.7924 C   0  0  1  0  0  0  0  0  0  0  0  0
    1.2340   -0.5373    1.7717 N   0  0  0  0  0  0  0  0  0  0  0  0
    1.4908   -1.5190    0.7830 C   0  0  0  0  0  0  0  0  0  0  0  0
    1.7042   -2.7547    0.7143 O   0  0  0  0  0  0  0  0  0  0  0  0
    1.4059   -0.4424   -0.2391 C   0  0  2  0  0  0  0  0  0  0  0  0
    2.7180    0.1930   -0.3600 N   0  0  0  0  0  0  0  0  0  0  0  0
   -3.5512    1.0560   -1.1388 H   0  0  0  0  0  0  0  0  0  0  0  0
   -3.3221   -0.4097   -0.0418 H   0  0  0  0  0  0  0  0  0  0  0  0
   -3.5721    1.2087    0.6488 H   0  0  0  0  0  0  0  0  0  0  0  0
   -1.1982    1.5253   -0.8122 H   0  0  0  0  0  0  0  0  0  0  0  0
    0.8871    1.3633    0.8799 H   0  0  0  0  0  0  0  0  0  0  0  0
    1.4423   -0.4740    2.7893 H   0  0  0  0  0  0  0  0  0  0  0  0
    0.9170   -0.6999   -1.1762 H   0  0  0  0  0  0  0  0  0  0  0  0
    3.4854   -0.4557   -0.0919 H   0  0  0  0  0  0  0  0  0  0  0  0
    2.8462    0.6537   -1.2717 H   0  0  0  0  0  0  0  0  0  0  0  0
  1  2  1  0
  2  3  1  0
  3  4  2  0
  3  5  1  0
  5  6  1  0
  6  7  1  0
  7  8  2  0
  7  9  1  0
  9 10  1  0
  9  5  1  0
  1 11  1  0
  1 12  1  0
  1 13  1  0
  2 14  1  0
  5 15  1  1
  6 16  1  0
  9 17  1  6
 10 18  1  0
 10 19  1  0
M  END
$$$$

     RDKit          3D

 19 19  0  0  0  0  0  0  0  0999 V2000
   -3.3293    0.0145    0.4620 C   0  0  0  0  0  0  0  0  0  0  0  0
   -1.9993   -0.1364   -0.0251 N   0  0  0  0  0  0  0  0  0  0  0  0
   -0.7827    0.0248    0.6358 C   0  0  0  0  0  0  0  0  0  0  0  0
   -0.7528    0.4695    1.8450 O   0  0  0  0  0  0  0  0  0  0  0  0
    0.4996   -0.2742   -0.0499 C   0  0  1  0  0  0  0  0  0  0  0  0
    0.8670    0.5213   -1.1853 N   0  0  0  0  0  0  0  0  0  0  0  0
    2.2125    0.0259   -0.8505 C   0  0  0  0  0  0  0  0  0  0  0  0
    3.0912   -0.3897   -1.5697 O   0  0  0  0  0  0  0  0  0  0  0  0
    1.7593    0.3580    0.5670 C   0  0  2  0  0  0  0  0  0  0  0  0
    2.4020   -0.3350    1.5721 N   0  0  0  0  0  0  0  0  0  0  0  0
   -3.3013    0.3919    1.4977 H   0  0  0  0  0  0  0  0  0  0  0  0
   -3.7780   -1.0337    0.5663 H   0  0  0  0  0  0  0  0  0  0  0  0
   -3.9669    0.6273   -0.1587 H   0  0  0  0  0  0  0  0  0  0  0  0
   -1.8477   -0.3782   -1.1077 H   0  0  0  0  0  0  0  0  0  0  0  0
    0.7366   -1.3838   -0.1107 H   0  0  0  0  0  0  0  0  0  0  0  0
    0.5688    1.1769   -1.9047 H   0  0  0  0  0  0  0  0  0  0  0  0
    1.6643    1.4391    0.6398 H   0  0  0  0  0  0  0  0  0  0  0  0
    3.2895    0.1945    1.7951 H   0  0  0  0  0  0  0  0  0  0  0  0
    2.6672   -1.3126    1.2711 H   0  0  0  0  0  0  0  0  0  0  0  0
  1  2  1  0
  2  3  1  0
  3  4  2  0
  3  5  1  0
  5  6  1  0
  6  7  1  0
  7  8  2  0
  7  9  1  0
  9 10  1  0
  9  5  1  0
  1 11  1  0
  1 12  1  0
  1 13  1  0
  2 14  1  0
  5 15  1  6
  6 16  1  0
  9 17  1  1
 10 18  1  0
 10 19  1  0
M  END
$$$$

     RDKit          3D

 19 19  0  0  0  0  0  0  0  0999 V2000
    3.0437    0.3586   -0.1769 C   0  0  0  0  0  0  0  0  0  0  0  0
    1.6259    0.3625   -0.4777 N   0  0  0  0  0  0  0  0  0  0  0  0
    0.7979   -0.7026   -0.0173 C   0  0  0  0  0  0  0  0  0  0  0  0
    1.3143   -1.6259    0.6415 O   0  0  0  0  0  0  0  0  0  0  0  0
   -0.6341   -0.6474   -0.3516 C   0  0  1  0  0  0  0  0  0  0  0  0
   -1.4463   -1.7237    0.1188 N   0  0  0  0  0  0  0  0  0  0  0  0
   -2.3826   -0.7502    0.5955 C   0  0  0  0  0  0  0  0  0  0  0  0
   -3.6123   -0.7502    0.9089 O   0  0  0  0  0  0  0  0  0  0  0  0
   -1.3589    0.3121    0.5945 C   0  0  2  0  0  0  0  0  0  0  0  0
   -1.7509    1.5533   -0.0411 N   0  0  0  0  0  0  0  0  0  0  0  0
    3.1258    0.3972    0.9352 H   0  0  0  0  0  0  0  0  0  0  0  0
    3.5759   -0.4961   -0.6169 H   0  0  0  0  0  0  0  0  0  0  0  0
    3.5020    1.2744   -0.6279 H   0  0  0  0  0  0  0  0  0  0  0  0
    1.1940    1.1529   -1.0395 H   0  0  0  0  0  0  0  0  0  0  0  0
   -0.8310   -0.4302   -1.4107 H   0  0  0  0  0  0  0  0  0  0  0  0
   -1.4453   -2.7577    0.1489 H   0  0  0  0  0  0  0  0  0  0  0  0
   -0.8477    0.4186    1.5591 H   0  0  0  0  0  0  0  0  0  0  0  0
   -1.1314    2.3232    0.2446 H   0  0  0  0  0  0  0  0  0  0  0  0
   -2.7389    1.7312    0.1784 H   0  0  0  0  0  0  0  0  0  0  0  0
  1  2  1  0
  2  3  1  0
  3  4  2  0
  3  5  1  0
  5  6  1  0
  6  7  1  0
  7  8  2  0
  7  9  1  0
  9 10  1  0
  9  5  1  0
  1 11  1  0
  1 12  1  0
  1 13  1  0
  2 14  1  0
  5 15  1  6
  6 16  1  0
  9 17  1  1
 10 18  1  0
 10 19  1  0
M  END
$$$$
