
     RDKit          3D

 26 25  0  0  0  0  0  0  0  0999 V2000
   -3.1461    0.0127    0.4639 C   0  0  0  0  0  0  0  0  0  0  0  0
   -1.9081   -0.8465    0.2777 C   0  0  1  0  0  0  0  0  0  0  0  0
   -2.2386   -1.9649   -0.4529 O   0  0  0  0  0  0  0  0  0  0  0  0
   -0.7801   -0.0239   -0.3385 C   0  0  0  0  0  0  0  0  0  0  0  0
    0.3952   -0.8516   -0.4098 N   0  0  0  0  0  0  0  0  0  0  0  0
    1.5937   -0.0631   -0.6716 C   0  0  2  0  0  0  0  0  0  0  0  0
    1.8012    0.8956    0.4980 C   0  0  0  0  0  0  0  0  0  0  0  0
    1.9444    0.1077    1.7601 C   0  0  0  0  0  0  0  0  0  0  0  0
    2.7196   -0.8825    1.7489 O   0  0  0  0  0  0  0  0  0  0  0  0
    1.2650    0.4188    2.9113 O   0  0  0  0  0  0  0  0  0  0  0  0
    1.5710    0.6317   -1.9669 C   0  0  0  0  0  0  0  0  0  0  0  0
    0.6370    0.4796   -2.7542 O   0  0  0  0  0  0  0  0  0  0  0  0
    2.6314    1.4826   -2.3161 O   0  0  0  0  0  0  0  0  0  0  0  0
   -3.4252   -0.0744    1.5331 H   0  0  0  0  0  0  0  0  0  0  0  0
   -2.8498    1.0663    0.2374 H   0  0  0  0  0  0  0  0  0  0  0  0
   -3.9855   -0.3537   -0.1384 H   0  0  0  0  0  0  0  0  0  0  0  0
   -1.5252   -1.1795    1.2761 H   0  0  0  0  0  0  0  0  0  0  0  0
   -2.5116   -2.7169    0.1257 H   0  0  0  0  0  0  0  0  0  0  0  0
   -0.6943    0.9292    0.1611 H   0  0  0  0  0  0  0  0  0  0  0  0
   -1.1286    0.1955   -1.3972 H   0  0  0  0  0  0  0  0  0  0  0  0
    0.2987   -1.5471   -1.1907 H   0  0  0  0  0  0  0  0  0  0  0  0
    2.4417   -0.7582   -0.6753 H   0  0  0  0  0  0  0  0  0  0  0  0
    2.8003    1.4051    0.3419 H   0  0  0  0  0  0  0  0  0  0  0  0
    1.0668    1.6882    0.5581 H   0  0  0  0  0  0  0  0  0  0  0  0
    0.6798   -0.2761    3.3954 H   0  0  0  0  0  0  0  0  0  0  0  0
    2.3475    2.2253   -2.9772 H   0  0  0  0  0  0  0  0  0  0  0  0
  1  2  1  0
  2  3  1  0
  2  4  1  0
  4  5  1  0
  5  6  1  0
  6  7  1  0
  7  8  1  0
  8  9  2  0
  8 10  1  0
  6 11  1  0
 11 12  2  0
 11 13  1  0
  1 14  1  0
  1 15  1  0
  1 16  1  0
  2 17  1  1
  3 18  1  0
  4 19  1  0
  4 20  1  0
  5 21  1  0
  6 22  1  6
  7 23  1  0
  7 24  1  0
 10 25  1  0
 13 26  1  0
M  END
$$$$

     RDKit          3D

 26 25  0  0  0  0  0  0  0  0999 V2000
    3.0680    0.5064   -0.6507 C   0  0  0  0  0  0  0  0  0  0  0  0
    2.4522   -0.7918   -0.2642 C   0  0  1  0  0  0  0  0  0  0  0  0
    3.2996   -1.6742    0.3993 O   0  0  0  0  0  0  0  0  0  0  0  0
    1.1583   -0.7054    0.4387 C   0  0  0  0  0  0  0  0  0  0  0  0
    0.3613    0.3392   -0.1800 N   0  0  0  0  0  0  0  0  0  0  0  0
   -1.0401    0.2024    0.3061 C   0  0  2  0  0  0  0  0  0  0  0  0
   -2.0417   -0.1906   -0.6751 C   0  0  0  0  0  0  0  0  0  0  0  0
   -3.2768   -0.7477    0.0083 C   0  0  0  0  0  0  0  0  0  0  0  0
   -4.1703   -0.1808    0.6014 O   0  0  0  0  0  0  0  0  0  0  0  0
   -3.3470   -2.1918   -0.1059 O   0  0  0  0  0  0  0  0  0  0  0  0
   -1.1982    1.6553    0.7368 C   0  0  0  0  0  0  0  0  0  0  0  0
   -1.1815    2.0789    1.9153 O   0  0  0  0  0  0  0  0  0  0  0  0
   -1.3620    2.6400   -0.2989 O   0  0  0  0  0  0  0  0  0  0  0  0
    4.1425    0.5641   -0.4196 H   0  0  0  0  0  0  0  0  0  0  0  0
    2.9217    0.6847   -1.7541 H   0  0  0  0  0  0  0  0  0  0  0  0
    2.4922    1.3483   -0.1859 H   0  0  0  0  0  0  0  0  0  0  0  0
    2.2233   -1.3675   -1.2660 H   0  0  0  0  0  0  0  0  0  0  0  0
    3.9170   -1.1278    1.0103 H   0  0  0  0  0  0  0  0  0  0  0  0
    0.6783   -1.7331    0.3436 H   0  0  0  0  0  0  0  0  0  0  0  0
    1.2550   -0.4365    1.5048 H   0  0  0  0  0  0  0  0  0  0  0  0
    0.3381    0.1688   -1.2432 H   0  0  0  0  0  0  0  0  0  0  0  0
   -0.9799   -0.3857    1.2307 H   0  0  0  0  0  0  0  0  0  0  0  0
   -1.7510   -0.5728   -1.6263 H   0  0  0  0  0  0  0  0  0  0  0  0
   -2.5324    0.8703   -1.0274 H   0  0  0  0  0  0  0  0  0  0  0  0
   -4.2622   -2.5840   -0.3216 H   0  0  0  0  0  0  0  0  0  0  0  0
   -1.1643    3.6312   -0.1434 H   0  0  0  0  0  0  0  0  0  0  0  0
  1  2  1  0
  2  3  1  0
  2  4  1  0
  4  5  1  0
  5  6  1  0
  6  7  1  0
  7  8  1  0
  8  9  2  0
  8 10  1  0
  6 11  1  0
 11 12  2  0
 11 13  1  0
  1 14  1  0
  1 15  1  0
  1 16  1  0
  2 17  1  6
  3 18  1  0
  4 19  1  0
  4 20  1  0
  5 21  1  0
  6 22  1  1
  7 23  1  0
  7 24  1  0
 10 25  1  0
 13 26  1  0
M  END
$$$$

     RDKit          3D

 26 25  0  0  0  0  0  0  0  0999 V2000
   -3.2650    0.1783   -0.2676 C   0  0  0  0  0  0  0  0  0  0  0  0
   -2.2959   -0.5903    0.6828 C   0  0  1  0  0  0  0  0  0  0  0  0
   -2.9449   -1.8149    0.9322 O   0  0  0  0  0  0  0  0  0  0  0  0
   -1.0384   -0.7901   -0.1178 C   0  0  0  0  0  0  0  0  0  0  0  0
   -0.2377    0.3958   -0.0604 N   0  0  0  0  0  0  0  0  0  0  0  0
    0.9236    0.4821   -0.8288 C   0  0  2  0  0  0  0  0  0  0  0  0
    2.0784   -0.4204   -0.7118 C   0  0  0  0  0  0  0  0  0  0  0  0
    2.9277   -0.4901    0.4748 C   0  0  0  0  0  0  0  0  0  0  0  0
    3.7180    0.5077    0.7069 O   0  0  0  0  0  0  0  0  0  0  0  0
    2.9537   -1.5387    1.3637 O   0  0  0  0  0  0  0  0  0  0  0  0
    1.4397    1.8770   -0.4390 C   0  0  0  0  0  0  0  0  0  0  0  0
    1.3442    2.8275   -1.2277 O   0  0  0  0  0  0  0  0  0  0  0  0
    2.0126    2.0777    0.8128 O   0  0  0  0  0  0  0  0  0  0  0  0
   -3.4743    1.1896    0.0774 H   0  0  0  0  0  0  0  0  0  0  0  0
   -4.2113   -0.4230   -0.2444 H   0  0  0  0  0  0  0  0  0  0  0  0
   -2.8542    0.2378   -1.2713 H   0  0  0  0  0  0  0  0  0  0  0  0
   -2.2228   -0.0044    1.5805 H   0  0  0  0  0  0  0  0  0  0  0  0
   -2.8485   -2.4559    0.2315 H   0  0  0  0  0  0  0  0  0  0  0  0
   -0.4827   -1.6588    0.2558 H   0  0  0  0  0  0  0  0  0  0  0  0
   -1.3636   -0.9762   -1.2044 H   0  0  0  0  0  0  0  0  0  0  0  0
   -0.6788    1.2575    0.1939 H   0  0  0  0  0  0  0  0  0  0  0  0
    0.7022    0.5528   -1.9499 H   0  0  0  0  0  0  0  0  0  0  0  0
    1.6443   -1.5338   -0.8090 H   0  0  0  0  0  0  0  0  0  0  0  0
    2.7162   -0.4387   -1.6573 H   0  0  0  0  0  0  0  0  0  0  0  0
    3.6237   -1.4101    2.1507 H   0  0  0  0  0  0  0  0  0  0  0  0
    1.8341    2.9615    1.3264 H   0  0  0  0  0  0  0  0  0  0  0  0
  1  2  1  0
  2  3  1  0
  2  4  1  0
  4  5  1  0
  5  6  1  0
  6  7  1  0
  7  8  1  0
  8  9  2  0
  8 10  1  0
  6 11  1  0
 11 12  2  0
 11 13  1  0
  1 14  1  0
  1 15  1  0
  1 16  1  0
  2 17  1  1
  3 18  1  0
  4 19  1  0
  4 20  1  0
  5 21  1  0
  6 22  1  6
  7 23  1  0
  7 24  1  0
 10 25  1  0
 13 26  1  0
M  END
$$$$

     RDKit          3D

 26 25  0  0  0  0  0  0  0  0999 V2000
   -3.4009    0.2391   -1.3245 C   0  0  0  0  0  0  0  0  0  0  0  0
   -2.6376    0.3428    0.0071 C   0  0  1  0  0  0  0  0  0  0  0  0
   -3.0921   -0.6483    0.8412 O   0  0  0  0  0  0  0  0  0  0  0  0
   -1.1672    0.2329   -0.3365 C   0  0  0  0  0  0  0  0  0  0  0  0
   -0.3110    0.2639    0.7728 N   0  0  0  0  0  0  0  0  0  0  0  0
    1.0652    0.2775    0.4789 C   0  0  2  0  0  0  0  0  0  0  0  0
    1.4343   -0.9931   -0.2503 C   0  0  0  0  0  0  0  0  0  0  0  0
    2.8873   -1.0375   -0.5758 C   0  0  0  0  0  0  0  0  0  0  0  0
    3.6871   -1.5725    0.2313 O   0  0  0  0  0  0  0  0  0  0  0  0
    3.3704   -0.4920   -1.7681 O   0  0  0  0  0  0  0  0  0  0  0  0
    1.9322    0.5030    1.6625 C   0  0  0  0  0  0  0  0  0  0  0  0
    1.3517    0.5913    2.7914 O   0  0  0  0  0  0  0  0  0  0  0  0
    3.3044    0.6148    1.5526 O   0  0  0  0  0  0  0  0  0  0  0  0
   -3.8451   -0.7811   -1.4096 H   0  0  0  0  0  0  0  0  0  0  0  0
   -4.1786    1.0175   -1.4016 H   0  0  0  0  0  0  0  0  0  0  0  0
   -2.6948    0.3277   -2.1742 H   0  0  0  0  0  0  0  0  0  0  0  0
   -2.8731    1.3372    0.4293 H   0  0  0  0  0  0  0  0  0  0  0  0
   -3.8103   -0.2533    1.4153 H   0  0  0  0  0  0  0  0  0  0  0  0
   -0.9093    1.0489   -1.0410 H   0  0  0  0  0  0  0  0  0  0  0  0
   -0.9872   -0.7259   -0.9063 H   0  0  0  0  0  0  0  0  0  0  0  0
   -0.6250   -0.1358    1.6554 H   0  0  0  0  0  0  0  0  0  0  0  0
    1.2525    1.1075   -0.2746 H   0  0  0  0  0  0  0  0  0  0  0  0
    0.9263   -1.0383   -1.2644 H   0  0  0  0  0  0  0  0  0  0  0  0
    1.1372   -1.8702    0.3278 H   0  0  0  0  0  0  0  0  0  0  0  0
    4.2968   -0.0632   -1.7429 H   0  0  0  0  0  0  0  0  0  0  0  0
    3.8867    0.2974    2.3041 H   0  0  0  0  0  0  0  0  0  0  0  0
  1  2  1  0
  2  3  1  0
  2  4  1  0
  4  5  1  0
  5  6  1  0
  6  7  1  0
  7  8  1  0
  8  9  2  0
  8 10  1  0
  6 11  1  0
 11 12  2  0
 11 13  1  0
  1 14  1  0
  1 15  1  0
  1 16  1  0
  2 17  1  1
  3 18  1  0
  4 19  1  0
  4 20  1  0
  5 21  1  0
  6 22  1  6
  7 23  1  0
  7 24  1  0
 10 25  1  0
 13 26  1  0
M  END
$$$$

     RDKit          3D

 26 25  0  0  0  0  0  0  0  0999 V2000
   -3.2879   -0.3824   -0.8763 C   0  0  0  0  0  0  0  0  0  0  0  0
   -2.1568    0.3261   -0.1538 C   0  0  1  0  0  0  0  0  0  0  0  0
   -2.6636    0.9505    0.9923 O   0  0  0  0  0  0  0  0  0  0  0  0
   -1.1400   -0.7405    0.2017 C   0  0  0  0  0  0  0  0  0  0  0  0
   -0.0152   -0.2359    0.9003 N   0  0  0  0  0  0  0  0  0  0  0  0
    0.8783    0.5804    0.1745 C   0  0  2  0  0  0  0  0  0  0  0  0
    1.5829   -0.1475   -0.9615 C   0  0  0  0  0  0  0  0  0  0  0  0
    2.3699   -1.2936   -0.4382 C   0  0  0  0  0  0  0  0  0  0  0  0
    1.8931   -2.4648   -0.5713 O   0  0  0  0  0  0  0  0  0  0  0  0
    3.5888   -1.1592    0.1899 O   0  0  0  0  0  0  0  0  0  0  0  0
    1.8127    1.4089    0.9332 C   0  0  0  0  0  0  0  0  0  0  0  0
    1.8851    1.5075    2.1948 O   0  0  0  0  0  0  0  0  0  0  0  0
    2.7280    2.1766    0.1780 O   0  0  0  0  0  0  0  0  0  0  0  0
   -3.8007   -1.1251   -0.2075 H   0  0  0  0  0  0  0  0  0  0  0  0
   -4.0220    0.3416   -1.2765 H   0  0  0  0  0  0  0  0  0  0  0  0
   -2.8983   -0.9662   -1.7393 H   0  0  0  0  0  0  0  0  0  0  0  0
   -1.7583    1.0967   -0.8371 H   0  0  0  0  0  0  0  0  0  0  0  0
   -2.8568    0.2624    1.7045 H   0  0  0  0  0  0  0  0  0  0  0  0
   -0.7834   -1.1512   -0.7858 H   0  0  0  0  0  0  0  0  0  0  0  0
   -1.6731   -1.5506    0.7170 H   0  0  0  0  0  0  0  0  0  0  0  0
   -0.0898   -0.0812    1.9093 H   0  0  0  0  0  0  0  0  0  0  0  0
    0.2136    1.3453   -0.3777 H   0  0  0  0  0  0  0  0  0  0  0  0
    2.2651    0.5963   -1.4874 H   0  0  0  0  0  0  0  0  0  0  0  0
    0.8705   -0.4860   -1.7464 H   0  0  0  0  0  0  0  0  0  0  0  0
    3.9750   -1.8724    0.8339 H   0  0  0  0  0  0  0  0  0  0  0  0
    3.0828    3.0646    0.5294 H   0  0  0  0  0  0  0  0  0  0  0  0
  1  2  1  0
  2  3  1  0
  2  4  1  0
  4  5  1  0
  5  6  1  0
  6  7  1  0
  7  8  1  0
  8  9  2  0
  8 10  1  0
  6 11  1  0
 11 12  2  0
 11 13  1  0
  1 14  1  0
  1 15  1  0
  1 16  1  0
  2 17  1  6
  3 18  1  0
  4 19  1  0
  4 20  1  0
  5 21  1  0
  6 22  1  6
  7 23  1  0
  7 24  1  0
 10 25  1  0
 13 26  1  0
M  END
$$$$

     RDKit          3D

 26 25  0  0  0  0  0  0  0  0999 V2000
    3.6599    0.1740    0.3558 C   0  0  0  0  0  0  0  0  0  0  0  0
    2.2726    0.6817    0.6183 C   0  0  1  0  0  0  0  0  0  0  0  0
    2.0449    1.8156   -0.1791 O   0  0  0  0  0  0  0  0  0  0  0  0
    1.2686   -0.3943    0.1556 C   0  0  0  0  0  0  0  0  0  0  0  0
   -0.0173    0.1609    0.3495 N   0  0  0  0  0  0  0  0  0  0  0  0
   -1.1253   -0.5189   -0.1774 C   0  0  2  0  0  0  0  0  0  0  0  0
   -2.3938    0.0348    0.4708 C   0  0  0  0  0  0  0  0  0  0  0  0
   -2.4959    1.4805    0.1887 C   0  0  0  0  0  0  0  0  0  0  0  0
   -1.5923    2.0925   -0.4678 O   0  0  0  0  0  0  0  0  0  0  0  0
   -3.5854    2.1955    0.6429 O   0  0  0  0  0  0  0  0  0  0  0  0
   -1.1557   -1.9686   -0.0638 C   0  0  0  0  0  0  0  0  0  0  0  0
   -0.3075   -2.6754    0.5055 O   0  0  0  0  0  0  0  0  0  0  0  0
   -2.2373   -2.6538   -0.6505 O   0  0  0  0  0  0  0  0  0  0  0  0
    3.6432   -0.9342    0.2245 H   0  0  0  0  0  0  0  0  0  0  0  0
    4.3511    0.3992    1.1807 H   0  0  0  0  0  0  0  0  0  0  0  0
    4.0454    0.6386   -0.5726 H   0  0  0  0  0  0  0  0  0  0  0  0
    2.1221    0.9252    1.6821 H   0  0  0  0  0  0  0  0  0  0  0  0
    1.9720    1.4521   -1.1047 H   0  0  0  0  0  0  0  0  0  0  0  0
    1.4851   -1.3436    0.6917 H   0  0  0  0  0  0  0  0  0  0  0  0
    1.4418   -0.5978   -0.9183 H   0  0  0  0  0  0  0  0  0  0  0  0
   -0.1648    0.6206    1.2758 H   0  0  0  0  0  0  0  0  0  0  0  0
   -1.1930   -0.2469   -1.2795 H   0  0  0  0  0  0  0  0  0  0  0  0
   -2.4231   -0.1777    1.5503 H   0  0  0  0  0  0  0  0  0  0  0  0
   -3.2803   -0.4957    0.0450 H   0  0  0  0  0  0  0  0  0  0  0  0
   -3.9429    2.9768    0.1429 H   0  0  0  0  0  0  0  0  0  0  0  0
   -2.3923   -3.6415   -0.4826 H   0  0  0  0  0  0  0  0  0  0  0  0
  1  2  1  0
  2  3  1  0
  2  4  1  0
  4  5  1  0
  5  6  1  0
  6  7  1  0
  7  8  1  0
  8  9  2  0
  8 10  1  0
  6 11  1  0
 11 12  2  0
 11 13  1  0
  1 14  1  0
  1 15  1  0
  1 16  1  0
  2 17  1  1
  3 18  1  0
  4 19  1  0
  4 20  1  0
  5 21  1  0
  6 22  1  6
  7 23  1  0
  7 24  1  0
 10 25  1  0
 13 26  1  0
M  END
$$$$

     RDKit          3D

 26 25  0  0  0  0  0  0  0  0999 V2000
    3.2270    0.6363    0.4147 C   0  0  0  0  0  0  0  0  0  0  0  0
    2.6084   -0.7340    0.2998 C   0  0  1  0  0  0  0  0  0  0  0  0
    3.3317   -1.6694    1.0210 O   0  0  0  0  0  0  0  0  0  0  0  0
    1.1536   -0.7286    0.7632 C   0  0  0  0  0  0  0  0  0  0  0  0
    0.4575    0.2250    0.0046 N   0  0  0  0  0  0  0  0  0  0  0  0
   -0.9013    0.4369    0.2320 C   0  0  2  0  0  0  0  0  0  0  0  0
   -1.7208   -0.8053   -0.0623 C   0  0  0  0  0  0  0  0  0  0  0  0
   -3.1465   -0.5895    0.1729 C   0  0  0  0  0  0  0  0  0  0  0  0
   -3.6299   -0.7303    1.3374 O   0  0  0  0  0  0  0  0  0  0  0  0
   -4.0674   -0.2236   -0.8203 O   0  0  0  0  0  0  0  0  0  0  0  0
   -1.3727    1.6084   -0.5388 C   0  0  0  0  0  0  0  0  0  0  0  0
   -0.5457    2.2518   -1.2505 O   0  0  0  0  0  0  0  0  0  0  0  0
   -2.6829    2.0405   -0.5234 O   0  0  0  0  0  0  0  0  0  0  0  0
    3.8507    0.6741    1.3326 H   0  0  0  0  0  0  0  0  0  0  0  0
    2.4264    1.4042    0.4616 H   0  0  0  0  0  0  0  0  0  0  0  0
    3.8316    0.8187   -0.5068 H   0  0  0  0  0  0  0  0  0  0  0  0
    2.6237   -1.0475   -0.7782 H   0  0  0  0  0  0  0  0  0  0  0  0
    3.5895   -2.4016    0.4270 H   0  0  0  0  0  0  0  0  0  0  0  0
    1.0931   -0.4630    1.8391 H   0  0  0  0  0  0  0  0  0  0  0  0
    0.7617   -1.7669    0.6752 H   0  0  0  0  0  0  0  0  0  0  0  0
    0.8921    0.5967   -0.8396 H   0  0  0  0  0  0  0  0  0  0  0  0
   -1.0384    0.6820    1.3224 H   0  0  0  0  0  0  0  0  0  0  0  0
   -1.3484   -1.6201    0.5928 H   0  0  0  0  0  0  0  0  0  0  0  0
   -1.4769   -1.1416   -1.0987 H   0  0  0  0  0  0  0  0  0  0  0  0
   -5.0407   -0.4908   -0.8161 H   0  0  0  0  0  0  0  0  0  0  0  0
   -2.8754    3.0373   -0.5100 H   0  0  0  0  0  0  0  0  0  0  0  0
  1  2  1  0
  2  3  1  0
  2  4  1  0
  4  5  1  0
  5  6  1  0
  6  7  1  0
  7  8  1  0
  8  9  2  0
  8 10  1  0
  6 11  1  0
 11 12  2  0
 11 13  1  0
  1 14  1  0
  1 15  1  0
  1 16  1  0
  2 17  1  6
  3 18  1  0
  4 19  1  0
  4 20  1  0
  5 21  1  0
  6 22  1  1
  7 23  1  0
  7 24  1  0
 10 25  1  0
 13 26  1  0
M  END
$$$$

     RDKit          3D

 26 25  0  0  0  0  0  0  0  0999 V2000
   -3.2036    0.4735    0.3832 C   0  0  0  0  0  0  0  0  0  0  0  0
   -2.3274   -0.7265    0.3536 C   0  0  1  0  0  0  0  0  0  0  0  0
   -2.9958   -1.8166   -0.2281 O   0  0  0  0  0  0  0  0  0  0  0  0
   -1.0888   -0.5090   -0.4601 C   0  0  0  0  0  0  0  0  0  0  0  0
   -0.2645    0.5872   -0.0921 N   0  0  0  0  0  0  0  0  0  0  0  0
    1.0020    0.5428   -0.7425 C   0  0  2  0  0  0  0  0  0  0  0  0
    1.8546   -0.6247   -0.2959 C   0  0  0  0  0  0  0  0  0  0  0  0
    2.1198   -0.5712    1.1528 C   0  0  0  0  0  0  0  0  0  0  0  0
    1.7396    0.3668    1.9050 O   0  0  0  0  0  0  0  0  0  0  0  0
    2.8222   -1.6100    1.7220 O   0  0  0  0  0  0  0  0  0  0  0  0
    1.7368    1.8104   -0.6946 C   0  0  0  0  0  0  0  0  0  0  0  0
    1.2400    2.8117   -0.1814 O   0  0  0  0  0  0  0  0  0  0  0  0
    3.0265    1.9164   -1.2304 O   0  0  0  0  0  0  0  0  0  0  0  0
   -3.5070    0.6288    1.4525 H   0  0  0  0  0  0  0  0  0  0  0  0
   -4.0970    0.3801   -0.2696 H   0  0  0  0  0  0  0  0  0  0  0  0
   -2.6500    1.4002    0.1177 H   0  0  0  0  0  0  0  0  0  0  0  0
   -2.0199   -1.0247    1.3899 H   0  0  0  0  0  0  0  0  0  0  0  0
   -2.3880   -2.3245   -0.8596 H   0  0  0  0  0  0  0  0  0  0  0  0
   -0.5432   -1.4733   -0.4707 H   0  0  0  0  0  0  0  0  0  0  0  0
   -1.3857   -0.3204   -1.5394 H   0  0  0  0  0  0  0  0  0  0  0  0
   -0.2961    0.9395    0.8530 H   0  0  0  0  0  0  0  0  0  0  0  0
    0.7918    0.3375   -1.8351 H   0  0  0  0  0  0  0  0  0  0  0  0
    2.8385   -0.5034   -0.8160 H   0  0  0  0  0  0  0  0  0  0  0  0
    1.4438   -1.6024   -0.5543 H   0  0  0  0  0  0  0  0  0  0  0  0
    2.8285   -1.8137    2.7024 H   0  0  0  0  0  0  0  0  0  0  0  0
    3.3230    2.7255   -1.7624 H   0  0  0  0  0  0  0  0  0  0  0  0
  1  2  1  0
  2  3  1  0
  2  4  1  0
  4  5  1  0
  5  6  1  0
  6  7  1  0
  7  8  1  0
  8  9  2  0
  8 10  1  0
  6 11  1  0
 11 12  2  0
 11 13  1  0
  1 14  1  0
  1 15  1  0
  1 16  1  0
  2 17  1  1
  3 18  1  0
  4 19  1  0
  4 20  1  0
  5 21  1  0
  6 22  1  6
  7 23  1  0
  7 24  1  0
 10 25  1  0
 13 26  1  0
M  END
$$$$
