
     RDKit          3D

 15 15  0  0  0  0  0  0  0  0999 V2000
   -2.8480   -1.0430    0.3942 O   0  0  0  0  0  0  0  0  0  0  0  0
   -2.3874   -0.0365   -0.2168 C   0  0  0  0  0  0  0  0  0  0  0  0
   -3.3096    0.7475   -0.8948 O   0  0  0  0  0  0  0  0  0  0  0  0
   -0.9647    0.2637   -0.1964 C   0  0  0  0  0  0  0  0  0  0  0  0
   -0.5492    1.2752   -0.8180 O   0  0  0  0  0  0  0  0  0  0  0  0
    0.0167   -0.5679    0.5233 C   0  0  0  0  0  0  0  0  0  0  0  0
    1.3955   -0.0596    0.3955 C   0  0  0  0  0  0  0  0  0  0  0  0
    2.0230    0.8200    1.2037 N   0  0  0  0  0  0  0  0  0  0  0  0
    3.2509    1.0196    0.7516 N   0  0  0  0  0  0  0  0  0  0  0  0
    3.4302    0.2880   -0.3312 N   0  0  0  0  0  0  0  0  0  0  0  0
    2.3066   -0.3724   -0.5560 N   0  0  0  0  0  0  0  0  0  0  0  0
   -4.2598    0.9199   -0.5351 H   0  0  0  0  0  0  0  0  0  0  0  0
   -0.0108   -1.6352    0.1967 H   0  0  0  0  0  0  0  0  0  0  0  0
   -0.2615   -0.5891    1.6157 H   0  0  0  0  0  0  0  0  0  0  0  0
    2.1682   -1.0303   -1.3543 H   0  0  0  0  0  0  0  0  0  0  0  0
  1  2  2  0
  2  3  1  0
  2  4  1  0
  4  5  2  0
  4  6  1  0
  6  7  1  0
  7  8  2  0
  8  9  1  0
  9 10  2  0
 10 11  1  0
 11  7  1  0
  3 12  1  0
  6 13  1  0
  6 14  1  0
 11 15  1  0
M  END
$$$$

     RDKit          3D

 15 15  0  0  0  0  0  0  0  0999 V2000
    2.8089   -0.8023   -0.8753 O   0  0  0  0  0  0  0  0  0  0  0  0
    2.3785    0.0699   -0.0799 C   0  0  0  0  0  0  0  0  0  0  0  0
    3.2934    0.7623    0.6853 O   0  0  0  0  0  0  0  0  0  0  0  0
    0.9418    0.2983   -0.0124 C   0  0  0  0  0  0  0  0  0  0  0  0
    0.5125    1.1742    0.7867 O   0  0  0  0  0  0  0  0  0  0  0  0
   -0.0036   -0.4614   -0.8458 C   0  0  0  0  0  0  0  0  0  0  0  0
   -1.4084   -0.0614   -0.6096 C   0  0  0  0  0  0  0  0  0  0  0  0
   -2.1045    0.9031   -1.2492 N   0  0  0  0  0  0  0  0  0  0  0  0
   -3.3430    0.9677   -0.7565 N   0  0  0  0  0  0  0  0  0  0  0  0
   -3.4181    0.0342    0.1989 N   0  0  0  0  0  0  0  0  0  0  0  0
   -2.2576   -0.5877    0.2915 N   0  0  0  0  0  0  0  0  0  0  0  0
    4.2461    0.9741    0.3485 H   0  0  0  0  0  0  0  0  0  0  0  0
    0.0910   -1.5481   -0.6019 H   0  0  0  0  0  0  0  0  0  0  0  0
    0.2743   -0.3515   -1.9320 H   0  0  0  0  0  0  0  0  0  0  0  0
   -2.0110   -1.3714    0.9545 H   0  0  0  0  0  0  0  0  0  0  0  0
  1  2  2  0
  2  3  1  0
  2  4  1  0
  4  5  2  0
  4  6  1  0
  6  7  1  0
  7  8  2  0
  8  9  1  0
  9 10  2  0
 10 11  1  0
 11  7  1  0
  3 12  1  0
  6 13  1  0
  6 14  1  0
 11 15  1  0
M  END
$$$$

     RDKit          3D

 15 15  0  0  0  0  0  0  0  0999 V2000
    2.5700    0.1154    1.5130 O   0  0  0  0  0  0  0  0  0  0  0  0
    2.3361   -0.1383    0.3143 C   0  0  0  0  0  0  0  0  0  0  0  0
    3.4148   -0.3652   -0.5412 O   0  0  0  0  0  0  0  0  0  0  0  0
    0.9675   -0.1919   -0.1613 C   0  0  0  0  0  0  0  0  0  0  0  0
    0.7421   -0.4514   -1.3853 O   0  0  0  0  0  0  0  0  0  0  0  0
   -0.1456    0.0560    0.7844 C   0  0  0  0  0  0  0  0  0  0  0  0
   -1.4534   -0.0528    0.0673 C   0  0  0  0  0  0  0  0  0  0  0  0
   -2.2204   -1.1465   -0.1063 N   0  0  0  0  0  0  0  0  0  0  0  0
   -3.2898   -0.7836   -0.8011 N   0  0  0  0  0  0  0  0  0  0  0  0
   -3.2417    0.5010   -1.0818 N   0  0  0  0  0  0  0  0  0  0  0  0
   -2.1159    0.9483   -0.5493 N   0  0  0  0  0  0  0  0  0  0  0  0
    4.3081   -0.7336   -0.1866 H   0  0  0  0  0  0  0  0  0  0  0  0
    0.0042    1.0501    1.2221 H   0  0  0  0  0  0  0  0  0  0  0  0
   -0.1414   -0.7448    1.5668 H   0  0  0  0  0  0  0  0  0  0  0  0
   -1.7346    1.9373   -0.5698 H   0  0  0  0  0  0  0  0  0  0  0  0
  1  2  2  0
  2  3  1  0
  2  4  1  0
  4  5  2  0
  4  6  1  0
  6  7  1  0
  7  8  2  0
  8  9  1  0
  9 10  2  0
 10 11  1  0
 11  7  1  0
  3 12  1  0
  6 13  1  0
  6 14  1  0
 11 15  1  0
M  END
$$$$

     RDKit          3D

 15 15  0  0  0  0  0  0  0  0999 V2000
   -2.8272    0.7789   -0.7792 O   0  0  0  0  0  0  0  0  0  0  0  0
   -2.3022    0.1199    0.1548 C   0  0  0  0  0  0  0  0  0  0  0  0
   -3.1353   -0.2574    1.1947 O   0  0  0  0  0  0  0  0  0  0  0  0
   -0.9032   -0.1913    0.0827 C   0  0  0  0  0  0  0  0  0  0  0  0
   -0.3857   -0.8546    1.0277 O   0  0  0  0  0  0  0  0  0  0  0  0
   -0.0634    0.2306   -1.0394 C   0  0  0  0  0  0  0  0  0  0  0  0
    1.3360   -0.1840   -0.9283 C   0  0  0  0  0  0  0  0  0  0  0  0
    1.8830   -1.3123   -1.3743 N   0  0  0  0  0  0  0  0  0  0  0  0
    3.1701   -1.3176   -1.0817 N   0  0  0  0  0  0  0  0  0  0  0  0
    3.4512   -0.1911   -0.4466 N   0  0  0  0  0  0  0  0  0  0  0  0
    2.3110    0.5201   -0.3480 N   0  0  0  0  0  0  0  0  0  0  0  0
   -4.1124    0.0545    1.2630 H   0  0  0  0  0  0  0  0  0  0  0  0
   -0.5386   -0.1823   -1.9747 H   0  0  0  0  0  0  0  0  0  0  0  0
   -0.1804    1.3381   -1.1406 H   0  0  0  0  0  0  0  0  0  0  0  0
    2.2971    1.4485    0.1190 H   0  0  0  0  0  0  0  0  0  0  0  0
  1  2  2  0
  2  3  1  0
  2  4  1  0
  4  5  2  0
  4  6  1  0
  6  7  1  0
  7  8  2  0
  8  9  1  0
  9 10  2  0
 10 11  1  0
 11  7  1  0
  3 12  1  0
  6 13  1  0
  6 14  1  0
 11 15  1  0
M  END
$$$$

     RDKit          3D

 15 15  0  0  0  0  0  0  0  0999 V2000
    2.6076   -0.3436   -1.3154 O   0  0  0  0  0  0  0  0  0  0  0  0
    2.3460   -0.1332   -0.1078 C   0  0  0  0  0  0  0  0  0  0  0  0
    3.4015    0.0605    0.7762 O   0  0  0  0  0  0  0  0  0  0  0  0
    0.9561   -0.1028    0.3048 C   0  0  0  0  0  0  0  0  0  0  0  0
    0.6397    0.1054    1.5094 O   0  0  0  0  0  0  0  0  0  0  0  0
   -0.1165   -0.3137   -0.6708 C   0  0  0  0  0  0  0  0  0  0  0  0
   -1.4595   -0.2404   -0.0301 C   0  0  0  0  0  0  0  0  0  0  0  0
   -2.1791   -1.2482    0.5190 N   0  0  0  0  0  0  0  0  0  0  0  0
   -3.3025   -0.7064    0.9605 N   0  0  0  0  0  0  0  0  0  0  0  0
   -3.2623    0.5871    0.6866 N   0  0  0  0  0  0  0  0  0  0  0  0
   -2.1372    0.9179    0.0727 N   0  0  0  0  0  0  0  0  0  0  0  0
    4.3129    0.4015    0.4373 H   0  0  0  0  0  0  0  0  0  0  0  0
   -0.0294    0.4460   -1.4986 H   0  0  0  0  0  0  0  0  0  0  0  0
    0.0556   -1.2932   -1.1681 H   0  0  0  0  0  0  0  0  0  0  0  0
   -1.8331    1.8632   -0.2615 H   0  0  0  0  0  0  0  0  0  0  0  0
  1  2  2  0
  2  3  1  0
  2  4  1  0
  4  5  2  0
  4  6  1  0
  6  7  1  0
  7  8  2  0
  8  9  1  0
  9 10  2  0
 10 11  1  0
 11  7  1  0
  3 12  1  0
  6 13  1  0
  6 14  1  0
 11 15  1  0
M  END
$$$$

     RDKit          3D

 15 15  0  0  0  0  0  0  0  0999 V2000
    2.8206    0.7589    0.5876 O   0  0  0  0  0  0  0  0  0  0  0  0
    2.2794    0.3576   -0.4761 C   0  0  0  0  0  0  0  0  0  0  0  0
    3.0915    0.3024   -1.5999 O   0  0  0  0  0  0  0  0  0  0  0  0
    0.8687   -0.0283   -0.5166 C   0  0  0  0  0  0  0  0  0  0  0  0
    0.3816   -0.4207   -1.6028 O   0  0  0  0  0  0  0  0  0  0  0  0
    0.0761    0.0661    0.7480 C   0  0  0  0  0  0  0  0  0  0  0  0
   -1.3248   -0.3626    0.5199 C   0  0  0  0  0  0  0  0  0  0  0  0
   -1.8614   -1.5858    0.6310 N   0  0  0  0  0  0  0  0  0  0  0  0
   -3.1449   -1.5030    0.3323 N   0  0  0  0  0  0  0  0  0  0  0  0
   -3.3982   -0.2476    0.0409 N   0  0  0  0  0  0  0  0  0  0  0  0
   -2.3027    0.4739    0.1472 N   0  0  0  0  0  0  0  0  0  0  0  0
    4.0956    0.1296   -1.5445 H   0  0  0  0  0  0  0  0  0  0  0  0
    0.0844    1.1097    1.0728 H   0  0  0  0  0  0  0  0  0  0  0  0
    0.5466   -0.5779    1.5315 H   0  0  0  0  0  0  0  0  0  0  0  0
   -2.2126    1.5276   -0.0306 H   0  0  0  0  0  0  0  0  0  0  0  0
  1  2  2  0
  2  3  1  0
  2  4  1  0
  4  5  2  0
  4  6  1  0
  6  7  1  0
  7  8  2  0
  8  9  1  0
  9 10  2  0
 10 11  1  0
 11  7  1  0
  3 12  1  0
  6 13  1  0
  6 14  1  0
 11 15  1  0
M  END
$$$$

     RDKit          3D

 15 15  0  0  0  0  0  0  0  0999 V2000
   -2.7085   -0.0550    1.1615 O   0  0  0  0  0  0  0  0  0  0  0  0
   -2.3246    0.3733    0.0476 C   0  0  0  0  0  0  0  0  0  0  0  0
   -3.2831    0.9921   -0.7480 O   0  0  0  0  0  0  0  0  0  0  0  0
   -0.9460    0.2084   -0.3443 C   0  0  0  0  0  0  0  0  0  0  0  0
   -0.5212    0.6209   -1.4467 O   0  0  0  0  0  0  0  0  0  0  0  0
   -0.0061   -0.4618    0.5700 C   0  0  0  0  0  0  0  0  0  0  0  0
    1.3624   -0.5485    0.0176 C   0  0  0  0  0  0  0  0  0  0  0  0
    1.9134   -1.5286   -0.7390 N   0  0  0  0  0  0  0  0  0  0  0  0
    3.1639   -1.1374   -0.9777 N   0  0  0  0  0  0  0  0  0  0  0  0
    3.3972    0.0322   -0.4024 N   0  0  0  0  0  0  0  0  0  0  0  0
    2.2902    0.4043    0.2150 N   0  0  0  0  0  0  0  0  0  0  0  0
   -4.1938    1.2653   -0.3860 H   0  0  0  0  0  0  0  0  0  0  0  0
   -0.3856   -1.5152    0.7100 H   0  0  0  0  0  0  0  0  0  0  0  0
    0.0302    0.0530    1.5740 H   0  0  0  0  0  0  0  0  0  0  0  0
    2.2116    1.2970    0.7485 H   0  0  0  0  0  0  0  0  0  0  0  0
  1  2  2  0
  2  3  1  0
  2  4  1  0
  4  5  2  0
  4  6  1  0
  6  7  1  0
  7  8  2  0
  8  9  1  0
  9 10  2  0
 10 11  1  0
 11  7  1  0
  3 12  1  0
  6 13  1  0
  6 14  1  0
 11 15  1  0
M  END
$$$$

     RDKit          3D

 15 15  0  0  0  0  0  0  0  0999 V2000
   -2.8568    0.4325    0.5136 O   0  0  0  0  0  0  0  0  0  0  0  0
   -2.3515   -0.0338   -0.5307 C   0  0  0  0  0  0  0  0  0  0  0  0
   -3.1873   -0.3478   -1.5872 O   0  0  0  0  0  0  0  0  0  0  0  0
   -0.9374   -0.2398   -0.6346 C   0  0  0  0  0  0  0  0  0  0  0  0
   -0.3651   -0.7057   -1.6580 O   0  0  0  0  0  0  0  0  0  0  0  0
   -0.0620    0.1040    0.5102 C   0  0  0  0  0  0  0  0  0  0  0  0
    1.3704   -0.1687    0.2399 C   0  0  0  0  0  0  0  0  0  0  0  0
    2.0583   -1.2952    0.4680 N   0  0  0  0  0  0  0  0  0  0  0  0
    3.3063   -1.0986    0.0764 N   0  0  0  0  0  0  0  0  0  0  0  0
    3.4475    0.1218   -0.3986 N   0  0  0  0  0  0  0  0  0  0  0  0
    2.2578    0.6894   -0.2968 N   0  0  0  0  0  0  0  0  0  0  0  0
   -4.0560    0.1576   -1.7655 H   0  0  0  0  0  0  0  0  0  0  0  0
   -0.2200    1.1745    0.7311 H   0  0  0  0  0  0  0  0  0  0  0  0
   -0.4197   -0.4566    1.4033 H   0  0  0  0  0  0  0  0  0  0  0  0
    2.0154    1.6664   -0.5856 H   0  0  0  0  0  0  0  0  0  0  0  0
  1  2  2  0
  2  3  1  0
  2  4  1  0
  4  5  2  0
  4  6  1  0
  6  7  1  0
  7  8  2  0
  8  9  1  0
  9 10  2  0
 10 11  1  0
 11  7  1  0
  3 12  1  0
  6 13  1  0
  6 14  1  0
 11 15  1  0
M  END
$$$$
