
     RDKit          3D

 24 25  0  0  0  0  0  0  0  0999 V2000
   -2.2486    1.3104   -0.0831 O   0  0  0  0  0  0  0  0  0  0  0  0
   -1.0715    0.6890   -0.5315 C   0  0  1  0  0  0  0  0  0  0  0  0
    0.0211    1.0794    0.4184 C   0  0  1  0  0  0  0  0  0  0  0  0
   -0.1458    0.0973    1.4855 N   0  0  0  0  0  0  0  0  0  0  0  0
   -0.2625   -1.1310    0.7202 C   0  0  2  0  0  0  0  0  0  0  0  0
    1.0986   -1.4907    0.1488 C   0  0  0  0  0  0  0  0  0  0  0  0
    1.5351   -0.4331   -0.8401 C   0  0  0  0  0  0  0  0  0  0  0  0
    1.3996    0.9075   -0.1347 C   0  0  1  0  0  0  0  0  0  0  0  0
    1.8405    1.9615   -0.9016 O   0  0  0  0  0  0  0  0  0  0  0  0
   -1.2427   -0.7967   -0.3914 C   0  0  1  0  0  0  0  0  0  0  0  0
   -2.4974   -1.1748    0.0433 O   0  0  0  0  0  0  0  0  0  0  0  0
   -2.4283    0.9748    0.8223 H   0  0  0  0  0  0  0  0  0  0  0  0
   -0.9163    1.0281   -1.5655 H   0  0  0  0  0  0  0  0  0  0  0  0
   -0.0999    2.1066    0.7560 H   0  0  0  0  0  0  0  0  0  0  0  0
   -0.9571    0.2834    2.0851 H   0  0  0  0  0  0  0  0  0  0  0  0
   -0.6529   -1.9465    1.3382 H   0  0  0  0  0  0  0  0  0  0  0  0
    1.0666   -2.5071   -0.2972 H   0  0  0  0  0  0  0  0  0  0  0  0
    1.8050   -1.4829    0.9994 H   0  0  0  0  0  0  0  0  0  0  0  0
    0.9864   -0.4641   -1.7836 H   0  0  0  0  0  0  0  0  0  0  0  0
    2.6287   -0.5787   -1.0224 H   0  0  0  0  0  0  0  0  0  0  0  0
    2.0971    0.8424    0.7512 H   0  0  0  0  0  0  0  0  0  0  0  0
    2.2371    2.6650   -0.3124 H   0  0  0  0  0  0  0  0  0  0  0  0
   -0.9534   -1.2544   -1.3594 H   0  0  0  0  0  0  0  0  0  0  0  0
   -3.2396   -0.6852   -0.3455 H   0  0  0  0  0  0  0  0  0  0  0  0
  1  2  1  0
  2  3  1  0
  3  4  1  0
  4  5  1  0
  5  6  1  0
  6  7  1  0
  7  8  1  0
  8  9  1  0
  5 10  1  0
 10 11  1  0
 10  2  1  0
  8  3  1  0
  1 12  1  0
  2 13  1  6
  3 14  1  1
  4 15  1  0
  5 16  1  1
  6 17  1  0
  6 18  1  0
  7 19  1  0
  7 20  1  0
  8 21  1  1
  9 22  1  0
 10 23  1  6
 11 24  1  0
M  END
$$$$

     RDKit          3D

 24 25  0  0  0  0  0  0  0  0999 V2000
   -1.5564    2.1195    0.7105 O   0  0  0  0  0  0  0  0  0  0  0  0
   -0.7752    1.1507    0.0888 C   0  0  1  0  0  0  0  0  0  0  0  0
   -0.0172    0.3279    1.1148 C   0  0  1  0  0  0  0  0  0  0  0  0
   -0.5630   -1.0149    1.0143 N   0  0  0  0  0  0  0  0  0  0  0  0
   -0.7730   -1.1216   -0.4386 C   0  0  2  0  0  0  0  0  0  0  0  0
    0.4920   -0.8823   -1.2059 C   0  0  0  0  0  0  0  0  0  0  0  0
    1.7021   -0.7018   -0.3276 C   0  0  0  0  0  0  0  0  0  0  0  0
    1.4517    0.2430    0.8077 C   0  0  1  0  0  0  0  0  0  0  0  0
    2.0142    1.5038    0.6073 O   0  0  0  0  0  0  0  0  0  0  0  0
   -1.6493    0.1261   -0.6442 C   0  0  1  0  0  0  0  0  0  0  0  0
   -2.8223   -0.0730    0.0433 O   0  0  0  0  0  0  0  0  0  0  0  0
   -1.8375    2.7472   -0.0172 H   0  0  0  0  0  0  0  0  0  0  0  0
   -0.0953    1.6710   -0.6020 H   0  0  0  0  0  0  0  0  0  0  0  0
   -0.2015    0.7828    2.1141 H   0  0  0  0  0  0  0  0  0  0  0  0
    0.0539   -1.7404    1.3797 H   0  0  0  0  0  0  0  0  0  0  0  0
   -1.3043   -2.0401   -0.7048 H   0  0  0  0  0  0  0  0  0  0  0  0
    0.4410    0.0314   -1.8588 H   0  0  0  0  0  0  0  0  0  0  0  0
    0.6857   -1.7227   -1.9082 H   0  0  0  0  0  0  0  0  0  0  0  0
    2.0076   -1.7053    0.0248 H   0  0  0  0  0  0  0  0  0  0  0  0
    2.5188   -0.2934   -0.9744 H   0  0  0  0  0  0  0  0  0  0  0  0
    1.9471   -0.1674    1.7235 H   0  0  0  0  0  0  0  0  0  0  0  0
    2.9502    1.3763    0.3148 H   0  0  0  0  0  0  0  0  0  0  0  0
   -1.7690    0.3678   -1.7051 H   0  0  0  0  0  0  0  0  0  0  0  0
   -2.9002   -0.9847    0.4434 H   0  0  0  0  0  0  0  0  0  0  0  0
  1  2  1  0
  2  3  1  0
  3  4  1  0
  4  5  1  0
  5  6  1  0
  6  7  1  0
  7  8  1  0
  8  9  1  0
  5 10  1  0
 10 11  1  0
 10  2  1  0
  8  3  1  0
  1 12  1  0
  2 13  1  6
  3 14  1  1
  4 15  1  0
  5 16  1  1
  6 17  1  0
  6 18  1  0
  7 19  1  0
  7 20  1  0
  8 21  1  1
  9 22  1  0
 10 23  1  6
 11 24  1  0
M  END
$$$$

     RDKit          3D

 24 25  0  0  0  0  0  0  0  0999 V2000
    0.9943   -2.5244   -0.0947 O   0  0  0  0  0  0  0  0  0  0  0  0
    0.2455   -1.3757   -0.3151 C   0  0  1  0  0  0  0  0  0  0  0  0
    0.0473   -0.6311    1.0055 C   0  0  1  0  0  0  0  0  0  0  0  0
    1.0607    0.3626    0.9436 N   0  0  0  0  0  0  0  0  0  0  0  0
    0.9772    0.8599   -0.3946 C   0  0  2  0  0  0  0  0  0  0  0  0
   -0.3252    1.4792   -0.7536 C   0  0  0  0  0  0  0  0  0  0  0  0
   -1.5288    0.6994   -0.3448 C   0  0  0  0  0  0  0  0  0  0  0  0
   -1.3047    0.0895    1.0114 C   0  0  1  0  0  0  0  0  0  0  0  0
   -2.3297   -0.7280    1.4245 O   0  0  0  0  0  0  0  0  0  0  0  0
    1.0873   -0.4558   -1.1797 C   0  0  1  0  0  0  0  0  0  0  0  0
    2.4311   -0.8289   -1.1160 O   0  0  0  0  0  0  0  0  0  0  0  0
    1.8385   -2.2491    0.3276 H   0  0  0  0  0  0  0  0  0  0  0  0
   -0.7029   -1.6496   -0.7869 H   0  0  0  0  0  0  0  0  0  0  0  0
    0.1339   -1.3208    1.8765 H   0  0  0  0  0  0  0  0  0  0  0  0
    1.0983    1.0446    1.6854 H   0  0  0  0  0  0  0  0  0  0  0  0
    1.7868    1.5541   -0.6533 H   0  0  0  0  0  0  0  0  0  0  0  0
   -0.3609    2.5333   -0.3759 H   0  0  0  0  0  0  0  0  0  0  0  0
   -0.3616    1.5819   -1.8719 H   0  0  0  0  0  0  0  0  0  0  0  0
   -1.8899   -0.0200   -1.1015 H   0  0  0  0  0  0  0  0  0  0  0  0
   -2.3732    1.4391   -0.2179 H   0  0  0  0  0  0  0  0  0  0  0  0
   -1.1669    0.9478    1.7264 H   0  0  0  0  0  0  0  0  0  0  0  0
   -3.0235   -0.1841    1.8985 H   0  0  0  0  0  0  0  0  0  0  0  0
    0.7077   -0.3522   -2.1968 H   0  0  0  0  0  0  0  0  0  0  0  0
    2.9586   -0.2715   -0.4967 H   0  0  0  0  0  0  0  0  0  0  0  0
  1  2  1  0
  2  3  1  0
  3  4  1  0
  4  5  1  0
  5  6  1  0
  6  7  1  0
  7  8  1  0
  8  9  1  0
  5 10  1  0
 10 11  1  0
 10  2  1  0
  8  3  1  0
  1 12  1  0
  2 13  1  6
  3 14  1  1
  4 15  1  0
  5 16  1  6
  6 17  1  0
  6 18  1  0
  7 19  1  0
  7 20  1  0
  8 21  1  1
  9 22  1  0
 10 23  1  6
 11 24  1  0
M  END
$$$$

     RDKit          3D

 24 25  0  0  0  0  0  0  0  0999 V2000
    1.8800    1.6228    0.9955 O   0  0  0  0  0  0  0  0  0  0  0  0
    0.9003    0.6773    0.7808 C   0  0  1  0  0  0  0  0  0  0  0  0
   -0.0613    1.0090   -0.3051 C   0  0  1  0  0  0  0  0  0  0  0  0
    0.0283   -0.0516   -1.3080 N   0  0  0  0  0  0  0  0  0  0  0  0
    0.3331   -1.2097   -0.4515 C   0  0  2  0  0  0  0  0  0  0  0  0
   -0.7970   -1.3786    0.5153 C   0  0  0  0  0  0  0  0  0  0  0  0
   -1.9535   -0.4229    0.2317 C   0  0  0  0  0  0  0  0  0  0  0  0
   -1.5086    1.0030    0.1471 C   0  0  1  0  0  0  0  0  0  0  0  0
   -1.7460    1.7543    1.2580 O   0  0  0  0  0  0  0  0  0  0  0  0
    1.5446   -0.6207    0.2869 C   0  0  1  0  0  0  0  0  0  0  0  0
    2.4804   -0.3109   -0.6757 O   0  0  0  0  0  0  0  0  0  0  0  0
    2.1878    2.0278    0.1539 H   0  0  0  0  0  0  0  0  0  0  0  0
    0.4332    0.4542    1.7606 H   0  0  0  0  0  0  0  0  0  0  0  0
    0.2390    1.9838   -0.7485 H   0  0  0  0  0  0  0  0  0  0  0  0
    0.7898    0.1215   -1.9903 H   0  0  0  0  0  0  0  0  0  0  0  0
    0.5876   -2.0979   -1.0243 H   0  0  0  0  0  0  0  0  0  0  0  0
   -1.2186   -2.4102    0.3495 H   0  0  0  0  0  0  0  0  0  0  0  0
   -0.5001   -1.3497    1.5745 H   0  0  0  0  0  0  0  0  0  0  0  0
   -2.3665   -0.7639   -0.7634 H   0  0  0  0  0  0  0  0  0  0  0  0
   -2.7423   -0.6018    0.9608 H   0  0  0  0  0  0  0  0  0  0  0  0
   -2.0862    1.4724   -0.7024 H   0  0  0  0  0  0  0  0  0  0  0  0
   -1.2984    1.4866    2.0713 H   0  0  0  0  0  0  0  0  0  0  0  0
    1.8911   -1.2564    1.0936 H   0  0  0  0  0  0  0  0  0  0  0  0
    2.9831   -1.1385   -0.8871 H   0  0  0  0  0  0  0  0  0  0  0  0
  1  2  1  0
  2  3  1  0
  3  4  1  0
  4  5  1  0
  5  6  1  0
  6  7  1  0
  7  8  1  0
  8  9  1  0
  5 10  1  0
 10 11  1  0
 10  2  1  0
  8  3  1  0
  1 12  1  0
  2 13  1  1
  3 14  1  6
  4 15  1  0
  5 16  1  6
  6 17  1  0
  6 18  1  0
  7 19  1  0
  7 20  1  0
  8 21  1  6
  9 22  1  0
 10 23  1  1
 11 24  1  0
M  END
$$$$

     RDKit          3D

 24 25  0  0  0  0  0  0  0  0999 V2000
    2.5546    0.8625    0.1885 O   0  0  0  0  0  0  0  0  0  0  0  0
    1.2185    0.7343    0.6286 C   0  0  1  0  0  0  0  0  0  0  0  0
    0.3385    0.8924   -0.5888 C   0  0  1  0  0  0  0  0  0  0  0  0
    0.5505   -0.3553   -1.2781 N   0  0  0  0  0  0  0  0  0  0  0  0
    0.3057   -1.3311   -0.2525 C   0  0  2  0  0  0  0  0  0  0  0  0
   -1.1470   -1.4433    0.1204 C   0  0  0  0  0  0  0  0  0  0  0  0
   -1.6687   -0.1102    0.5426 C   0  0  0  0  0  0  0  0  0  0  0  0
   -1.1130    1.0452   -0.2239 C   0  0  1  0  0  0  0  0  0  0  0  0
   -1.3310    2.2006    0.5075 O   0  0  0  0  0  0  0  0  0  0  0  0
    1.0279   -0.7332    0.9560 C   0  0  1  0  0  0  0  0  0  0  0  0
    2.2389   -1.4042    1.0989 O   0  0  0  0  0  0  0  0  0  0  0  0
    2.7333    1.7445   -0.2009 H   0  0  0  0  0  0  0  0  0  0  0  0
    0.9765    1.4055    1.4474 H   0  0  0  0  0  0  0  0  0  0  0  0
    0.6318    1.7802   -1.1689 H   0  0  0  0  0  0  0  0  0  0  0  0
    0.0080   -0.4748   -2.1367 H   0  0  0  0  0  0  0  0  0  0  0  0
    0.6888   -2.3262   -0.5155 H   0  0  0  0  0  0  0  0  0  0  0  0
   -1.1893   -2.1152    1.0223 H   0  0  0  0  0  0  0  0  0  0  0  0
   -1.7673   -1.9048   -0.6690 H   0  0  0  0  0  0  0  0  0  0  0  0
   -2.7827   -0.1170    0.3625 H   0  0  0  0  0  0  0  0  0  0  0  0
   -1.5788    0.0475    1.6545 H   0  0  0  0  0  0  0  0  0  0  0  0
   -1.6752    1.1500   -1.1823 H   0  0  0  0  0  0  0  0  0  0  0  0
   -2.3073    2.4134    0.4741 H   0  0  0  0  0  0  0  0  0  0  0  0
    0.4258   -0.8109    1.8678 H   0  0  0  0  0  0  0  0  0  0  0  0
    2.8615   -1.1500    0.3666 H   0  0  0  0  0  0  0  0  0  0  0  0
  1  2  1  0
  2  3  1  0
  3  4  1  0
  4  5  1  0
  5  6  1  0
  6  7  1  0
  7  8  1  0
  8  9  1  0
  5 10  1  0
 10 11  1  0
 10  2  1  0
  8  3  1  0
  1 12  1  0
  2 13  1  1
  3 14  1  6
  4 15  1  0
  5 16  1  6
  6 17  1  0
  6 18  1  0
  7 19  1  0
  7 20  1  0
  8 21  1  6
  9 22  1  0
 10 23  1  1
 11 24  1  0
M  END
$$$$

     RDKit          3D

 24 25  0  0  0  0  0  0  0  0999 V2000
    0.5086    2.5529   -0.4176 O   0  0  0  0  0  0  0  0  0  0  0  0
    0.3261    1.2576   -0.0119 C   0  0  1  0  0  0  0  0  0  0  0  0
   -0.2639    0.3493   -1.0363 C   0  0  1  0  0  0  0  0  0  0  0  0
    0.5854   -0.8222   -1.1341 N   0  0  0  0  0  0  0  0  0  0  0  0
    1.1335   -0.8924    0.2298 C   0  0  2  0  0  0  0  0  0  0  0  0
    0.0048   -1.1540    1.1621 C   0  0  0  0  0  0  0  0  0  0  0  0
   -1.3427   -1.1792    0.5463 C   0  0  0  0  0  0  0  0  0  0  0  0
   -1.6018   -0.1494   -0.4894 C   0  0  1  0  0  0  0  0  0  0  0  0
   -2.2683    0.9547    0.0059 O   0  0  0  0  0  0  0  0  0  0  0  0
    1.6414    0.5548    0.3303 C   0  0  1  0  0  0  0  0  0  0  0  0
    2.5449    0.7199   -0.7000 O   0  0  0  0  0  0  0  0  0  0  0  0
    0.4201    3.1487    0.3790 H   0  0  0  0  0  0  0  0  0  0  0  0
   -0.2559    1.2488    0.9560 H   0  0  0  0  0  0  0  0  0  0  0  0
   -0.3775    0.8353   -2.0173 H   0  0  0  0  0  0  0  0  0  0  0  0
    0.0450   -1.7003   -1.2927 H   0  0  0  0  0  0  0  0  0  0  0  0
    1.9762   -1.5760    0.2979 H   0  0  0  0  0  0  0  0  0  0  0  0
    0.0733   -0.4486    2.0409 H   0  0  0  0  0  0  0  0  0  0  0  0
    0.1808   -2.1693    1.6254 H   0  0  0  0  0  0  0  0  0  0  0  0
   -1.5129   -2.1813    0.1013 H   0  0  0  0  0  0  0  0  0  0  0  0
   -2.0970   -1.0520    1.3769 H   0  0  0  0  0  0  0  0  0  0  0  0
   -2.1270   -0.5924   -1.3850 H   0  0  0  0  0  0  0  0  0  0  0  0
   -2.3791    1.6236   -0.7195 H   0  0  0  0  0  0  0  0  0  0  0  0
    2.0095    0.8007    1.3182 H   0  0  0  0  0  0  0  0  0  0  0  0
    2.7765   -0.1291   -1.1661 H   0  0  0  0  0  0  0  0  0  0  0  0
  1  2  1  0
  2  3  1  0
  3  4  1  0
  4  5  1  0
  5  6  1  0
  6  7  1  0
  7  8  1  0
  8  9  1  0
  5 10  1  0
 10 11  1  0
 10  2  1  0
  8  3  1  0
  1 12  1  0
  2 13  1  1
  3 14  1  6
  4 15  1  0
  5 16  1  6
  6 17  1  0
  6 18  1  0
  7 19  1  0
  7 20  1  0
  8 21  1  6
  9 22  1  0
 10 23  1  1
 11 24  1  0
M  END
$$$$

     RDKit          3D

 24 25  0  0  0  0  0  0  0  0999 V2000
   -1.6785    2.2048    0.0530 O   0  0  0  0  0  0  0  0  0  0  0  0
   -0.6739    1.3043   -0.3448 C   0  0  1  0  0  0  0  0  0  0  0  0
   -0.0074    0.7672    0.8776 C   0  0  1  0  0  0  0  0  0  0  0  0
   -0.7165   -0.4763    1.1262 N   0  0  0  0  0  0  0  0  0  0  0  0
   -0.7670   -1.0445   -0.2133 C   0  0  2  0  0  0  0  0  0  0  0  0
    0.5923   -1.4338   -0.7207 C   0  0  0  0  0  0  0  0  0  0  0  0
    1.6769   -0.9634    0.2075 C   0  0  0  0  0  0  0  0  0  0  0  0
    1.4460    0.4537    0.7020 C   0  0  1  0  0  0  0  0  0  0  0  0
    2.1353    1.3946   -0.0440 O   0  0  0  0  0  0  0  0  0  0  0  0
   -1.3011    0.1107   -1.0161 C   0  0  1  0  0  0  0  0  0  0  0  0
   -2.6796    0.1218   -0.8745 O   0  0  0  0  0  0  0  0  0  0  0  0
   -1.8214    2.1450    1.0413 H   0  0  0  0  0  0  0  0  0  0  0  0
   -0.0103    1.8594   -1.0201 H   0  0  0  0  0  0  0  0  0  0  0  0
   -0.1673    1.4463    1.7334 H   0  0  0  0  0  0  0  0  0  0  0  0
   -0.1902   -1.0917    1.7933 H   0  0  0  0  0  0  0  0  0  0  0  0
   -1.4920   -1.8864   -0.2124 H   0  0  0  0  0  0  0  0  0  0  0  0
    0.7897   -1.1121   -1.7593 H   0  0  0  0  0  0  0  0  0  0  0  0
    0.6275   -2.5580   -0.7030 H   0  0  0  0  0  0  0  0  0  0  0  0
    1.6694   -1.6632    1.0859 H   0  0  0  0  0  0  0  0  0  0  0  0
    2.6676   -1.0462   -0.2606 H   0  0  0  0  0  0  0  0  0  0  0  0
    1.9068    0.4840    1.7334 H   0  0  0  0  0  0  0  0  0  0  0  0
    1.9915    1.3485   -1.0022 H   0  0  0  0  0  0  0  0  0  0  0  0
   -1.0087    0.0629   -2.0843 H   0  0  0  0  0  0  0  0  0  0  0  0
   -2.9890   -0.4278   -0.0984 H   0  0  0  0  0  0  0  0  0  0  0  0
  1  2  1  0
  2  3  1  0
  3  4  1  0
  4  5  1  0
  5  6  1  0
  6  7  1  0
  7  8  1  0
  8  9  1  0
  5 10  1  0
 10 11  1  0
 10  2  1  0
  8  3  1  0
  1 12  1  0
  2 13  1  6
  3 14  1  1
  4 15  1  0
  5 16  1  1
  6 17  1  0
  6 18  1  0
  7 19  1  0
  7 20  1  0
  8 21  1  1
  9 22  1  0
 10 23  1  6
 11 24  1  0
M  END
$$$$

     RDKit          3D

 24 25  0  0  0  0  0  0  0  0999 V2000
    2.2702    1.2129    0.7546 O   0  0  0  0  0  0  0  0  0  0  0  0
    1.0187    0.6011    0.9968 C   0  0  1  0  0  0  0  0  0  0  0  0
    0.0434    1.2168    0.0586 C   0  0  1  0  0  0  0  0  0  0  0  0
    0.5323    0.7426   -1.2372 N   0  0  0  0  0  0  0  0  0  0  0  0
    0.6616   -0.6916   -0.9567 C   0  0  2  0  0  0  0  0  0  0  0  0
   -0.7336   -1.2652   -1.0440 C   0  0  0  0  0  0  0  0  0  0  0  0
   -1.5706   -0.7095    0.0679 C   0  0  0  0  0  0  0  0  0  0  0  0
   -1.3652    0.7585    0.2175 C   0  0  1  0  0  0  0  0  0  0  0  0
   -1.9231    1.2282    1.4080 O   0  0  0  0  0  0  0  0  0  0  0  0
    1.1500   -0.8141    0.4499 C   0  0  1  0  0  0  0  0  0  0  0  0
    2.4698   -1.2719    0.5310 O   0  0  0  0  0  0  0  0  0  0  0  0
    2.1967    1.9773    0.1470 H   0  0  0  0  0  0  0  0  0  0  0  0
    0.7543    0.6342    2.0507 H   0  0  0  0  0  0  0  0  0  0  0  0
    0.0685    2.3115    0.1402 H   0  0  0  0  0  0  0  0  0  0  0  0
   -0.1736    0.9480   -1.9484 H   0  0  0  0  0  0  0  0  0  0  0  0
    1.3509   -1.0941   -1.7030 H   0  0  0  0  0  0  0  0  0  0  0  0
   -1.1698   -0.8604   -2.0031 H   0  0  0  0  0  0  0  0  0  0  0  0
   -0.6889   -2.3520   -1.0847 H   0  0  0  0  0  0  0  0  0  0  0  0
   -1.4776   -1.2816    1.0205 H   0  0  0  0  0  0  0  0  0  0  0  0
   -2.6475   -0.8598   -0.2405 H   0  0  0  0  0  0  0  0  0  0  0  0
   -1.9589    1.2583   -0.6022 H   0  0  0  0  0  0  0  0  0  0  0  0
   -2.4602    0.5495    1.8751 H   0  0  0  0  0  0  0  0  0  0  0  0
    0.5508   -1.4943    1.0829 H   0  0  0  0  0  0  0  0  0  0  0  0
    3.1020   -0.7446    0.0191 H   0  0  0  0  0  0  0  0  0  0  0  0
  1  2  1  0
  2  3  1  0
  3  4  1  0
  4  5  1  0
  5  6  1  0
  6  7  1  0
  7  8  1  0
  8  9  1  0
  5 10  1  0
 10 11  1  0
 10  2  1  0
  8  3  1  0
  1 12  1  0
  2 13  1  1
  3 14  1  6
  4 15  1  0
  5 16  1  6
  6 17  1  0
  6 18  1  0
  7 19  1  0
  7 20  1  0
  8 21  1  6
  9 22  1  0
 10 23  1  1
 11 24  1  0
M  END
$$$$
