
     RDKit          3D

 27 27  0  0  0  0  0  0  0  0999 V2000
    4.8471   -0.7004    0.6939 N   0  0  0  0  0  0  0  0  0  0  0  0
    3.7402    0.1796    0.5312 C   0  0  0  0  0  0  0  0  0  0  0  0
    3.5716    1.1663    1.2846 O   0  0  0  0  0  0  0  0  0  0  0  0
    2.7636   -0.0510   -0.5313 C   0  0  0  0  0  0  0  0  0  0  0  0
    2.9235   -1.0465   -1.3003 O   0  0  0  0  0  0  0  0  0  0  0  0
    1.6544    0.8190   -0.7051 N   0  0  0  0  0  0  0  0  0  0  0  0
    0.6781    0.6078   -1.7479 C   0  0  0  0  0  0  0  0  0  0  0  0
   -0.0387   -0.7004   -1.6577 C   0  0  0  0  0  0  0  0  0  0  0  0
   -0.7736   -0.9298   -0.4751 N   0  0  0  0  0  0  0  0  0  0  0  0
   -1.8534   -0.0946   -0.0447 C   0  0  0  0  0  0  0  0  0  0  0  0
   -2.0973    0.8718   -0.8149 O   0  0  0  0  0  0  0  0  0  0  0  0
   -2.5953   -0.3675    1.1952 C   0  0  0  0  0  0  0  0  0  0  0  0
   -4.1197   -0.2198    1.0389 C   0  0  0  0  0  0  0  0  0  0  0  0
   -3.3312    0.6898    1.9163 C   0  0  0  0  0  0  0  0  0  0  0  0
    5.6566   -0.3521    1.2445 H   0  0  0  0  0  0  0  0  0  0  0  0
    4.8168   -1.6581    0.2622 H   0  0  0  0  0  0  0  0  0  0  0  0
    1.5837    1.6206   -0.0366 H   0  0  0  0  0  0  0  0  0  0  0  0
    1.2238    0.5847   -2.7413 H   0  0  0  0  0  0  0  0  0  0  0  0
   -0.0215    1.4642   -1.8507 H   0  0  0  0  0  0  0  0  0  0  0  0
   -0.6799   -0.7565   -2.5872 H   0  0  0  0  0  0  0  0  0  0  0  0
    0.7019   -1.5100   -1.7926 H   0  0  0  0  0  0  0  0  0  0  0  0
   -0.5394   -1.7412    0.1347 H   0  0  0  0  0  0  0  0  0  0  0  0
   -2.2486   -1.2587    1.7518 H   0  0  0  0  0  0  0  0  0  0  0  0
   -4.7115   -1.0591    1.4741 H   0  0  0  0  0  0  0  0  0  0  0  0
   -4.5001    0.2458    0.1122 H   0  0  0  0  0  0  0  0  0  0  0  0
   -3.2253    1.7469    1.6334 H   0  0  0  0  0  0  0  0  0  0  0  0
   -3.4259    0.5321    3.0124 H   0  0  0  0  0  0  0  0  0  0  0  0
  1  2  1  0
  2  3  2  0
  2  4  1  0
  4  5  2  0
  4  6  1  0
  6  7  1  0
  7  8  1  0
  8  9  1  0
  9 10  1  0
 10 11  2  0
 10 12  1  0
 12 13  1  0
 13 14  1  0
 14 12  1  0
  1 15  1  0
  1 16  1  0
  6 17  1  0
  7 18  1  0
  7 19  1  0
  8 20  1  0
  8 21  1  0
  9 22  1  0
 12 23  1  0
 13 24  1  0
 13 25  1  0
 14 26  1  0
 14 27  1  0
M  END
$$$$

     RDKit          3D

 27 27  0  0  0  0  0  0  0  0999 V2000
    5.6088   -1.4394   -0.7524 N   0  0  0  0  0  0  0  0  0  0  0  0
    4.6495   -0.4949   -0.3331 C   0  0  0  0  0  0  0  0  0  0  0  0
    5.0341    0.6786   -0.0765 O   0  0  0  0  0  0  0  0  0  0  0  0
    3.2339   -0.8072   -0.1811 C   0  0  0  0  0  0  0  0  0  0  0  0
    2.8771   -1.9839   -0.4432 O   0  0  0  0  0  0  0  0  0  0  0  0
    2.2638    0.1185    0.2348 N   0  0  0  0  0  0  0  0  0  0  0  0
    0.8605   -0.1845    0.3873 C   0  0  0  0  0  0  0  0  0  0  0  0
    0.1546    1.0478    0.8428 C   0  0  0  0  0  0  0  0  0  0  0  0
   -1.2495    0.8886    1.0348 N   0  0  0  0  0  0  0  0  0  0  0  0
   -2.1050    0.4997   -0.0254 C   0  0  0  0  0  0  0  0  0  0  0  0
   -1.6566    0.2754   -1.1970 O   0  0  0  0  0  0  0  0  0  0  0  0
   -3.5607    0.3520    0.2440 C   0  0  0  0  0  0  0  0  0  0  0  0
   -4.5165    0.8206   -0.8553 C   0  0  0  0  0  0  0  0  0  0  0  0
   -4.3325   -0.6381   -0.5688 C   0  0  0  0  0  0  0  0  0  0  0  0
    6.2171   -1.2720   -1.5694 H   0  0  0  0  0  0  0  0  0  0  0  0
    5.7087   -2.3245   -0.2303 H   0  0  0  0  0  0  0  0  0  0  0  0
    2.5886    1.0835    0.4444 H   0  0  0  0  0  0  0  0  0  0  0  0
    0.7579   -1.0283    1.1255 H   0  0  0  0  0  0  0  0  0  0  0  0
    0.4185   -0.5903   -0.5605 H   0  0  0  0  0  0  0  0  0  0  0  0
    0.3556    1.8434    0.0898 H   0  0  0  0  0  0  0  0  0  0  0  0
    0.6524    1.3886    1.7831 H   0  0  0  0  0  0  0  0  0  0  0  0
   -1.6683    1.0585    1.9692 H   0  0  0  0  0  0  0  0  0  0  0  0
   -3.8700    0.5629    1.2784 H   0  0  0  0  0  0  0  0  0  0  0  0
   -4.0993    1.2793   -1.7591 H   0  0  0  0  0  0  0  0  0  0  0  0
   -5.4683    1.3104   -0.5240 H   0  0  0  0  0  0  0  0  0  0  0  0
   -5.1307   -1.1952   -0.0359 H   0  0  0  0  0  0  0  0  0  0  0  0
   -3.7236   -1.2495   -1.2739 H   0  0  0  0  0  0  0  0  0  0  0  0
  1  2  1  0
  2  3  2  0
  2  4  1  0
  4  5  2  0
  4  6  1  0
  6  7  1  0
  7  8  1  0
  8  9  1  0
  9 10  1  0
 10 11  2  0
 10 12  1  0
 12 13  1  0
 13 14  1  0
 14 12  1  0
  1 15  1  0
  1 16  1  0
  6 17  1  0
  7 18  1  0
  7 19  1  0
  8 20  1  0
  8 21  1  0
  9 22  1  0
 12 23  1  0
 13 24  1  0
 13 25  1  0
 14 26  1  0
 14 27  1  0
M  END
$$$$

     RDKit          3D

 27 27  0  0  0  0  0  0  0  0999 V2000
    6.2252   -0.1372   -0.0898 N   0  0  0  0  0  0  0  0  0  0  0  0
    4.9302    0.4242    0.0076 C   0  0  0  0  0  0  0  0  0  0  0  0
    4.8418    1.6599    0.2169 O   0  0  0  0  0  0  0  0  0  0  0  0
    3.7143   -0.3924   -0.1285 C   0  0  0  0  0  0  0  0  0  0  0  0
    3.7901   -1.6284   -0.3379 O   0  0  0  0  0  0  0  0  0  0  0  0
    2.4182    0.1744   -0.0302 N   0  0  0  0  0  0  0  0  0  0  0  0
    1.2085   -0.6072   -0.1603 C   0  0  0  0  0  0  0  0  0  0  0  0
    0.0104    0.2862   -0.0069 C   0  0  0  0  0  0  0  0  0  0  0  0
   -1.2371   -0.4437   -0.1284 N   0  0  0  0  0  0  0  0  0  0  0  0
   -2.4628    0.2563   -0.0077 C   0  0  0  0  0  0  0  0  0  0  0  0
   -2.4220    1.5058    0.2038 O   0  0  0  0  0  0  0  0  0  0  0  0
   -3.7886   -0.3749   -0.1123 C   0  0  0  0  0  0  0  0  0  0  0  0
   -4.8946    0.3689   -0.7812 C   0  0  0  0  0  0  0  0  0  0  0  0
   -4.8932    0.2214    0.7055 C   0  0  0  0  0  0  0  0  0  0  0  0
    6.7374   -0.2441   -0.9867 H   0  0  0  0  0  0  0  0  0  0  0  0
    6.6965   -0.4624    0.7766 H   0  0  0  0  0  0  0  0  0  0  0  0
    2.3367    1.1882    0.1416 H   0  0  0  0  0  0  0  0  0  0  0  0
    1.1751   -1.0975   -1.1734 H   0  0  0  0  0  0  0  0  0  0  0  0
    1.2083   -1.4334    0.5641 H   0  0  0  0  0  0  0  0  0  0  0  0
    0.0469    1.1198   -0.7382 H   0  0  0  0  0  0  0  0  0  0  0  0
    0.0067    0.7295    1.0172 H   0  0  0  0  0  0  0  0  0  0  0  0
   -1.2528   -1.4609   -0.3006 H   0  0  0  0  0  0  0  0  0  0  0  0
   -3.7729   -1.4561   -0.2954 H   0  0  0  0  0  0  0  0  0  0  0  0
   -5.6926   -0.1607   -1.3060 H   0  0  0  0  0  0  0  0  0  0  0  0
   -4.6236    1.3420   -1.2380 H   0  0  0  0  0  0  0  0  0  0  0  0
   -4.7275    1.1397    1.2808 H   0  0  0  0  0  0  0  0  0  0  0  0
   -5.5787   -0.5174    1.1613 H   0  0  0  0  0  0  0  0  0  0  0  0
  1  2  1  0
  2  3  2  0
  2  4  1  0
  4  5  2  0
  4  6  1  0
  6  7  1  0
  7  8  1  0
  8  9  1  0
  9 10  1  0
 10 11  2  0
 10 12  1  0
 12 13  1  0
 13 14  1  0
 14 12  1  0
  1 15  1  0
  1 16  1  0
  6 17  1  0
  7 18  1  0
  7 19  1  0
  8 20  1  0
  8 21  1  0
  9 22  1  0
 12 23  1  0
 13 24  1  0
 13 25  1  0
 14 26  1  0
 14 27  1  0
M  END
$$$$

     RDKit          3D

 27 27  0  0  0  0  0  0  0  0999 V2000
    5.2492   -0.3468   -1.4545 N   0  0  0  0  0  0  0  0  0  0  0  0
    4.5468   -0.7499   -0.3118 C   0  0  0  0  0  0  0  0  0  0  0  0
    5.0711   -1.6291    0.4316 O   0  0  0  0  0  0  0  0  0  0  0  0
    3.2437   -0.1722    0.0150 C   0  0  0  0  0  0  0  0  0  0  0  0
    2.7771    0.6974   -0.7643 O   0  0  0  0  0  0  0  0  0  0  0  0
    2.5063   -0.5518    1.1556 N   0  0  0  0  0  0  0  0  0  0  0  0
    1.2265    0.0224    1.4640 C   0  0  0  0  0  0  0  0  0  0  0  0
    0.2641   -0.2575    0.3618 C   0  0  0  0  0  0  0  0  0  0  0  0
   -1.0556    0.3219    0.6584 N   0  0  0  0  0  0  0  0  0  0  0  0
   -2.1443    0.2000   -0.2230 C   0  0  0  0  0  0  0  0  0  0  0  0
   -1.9904   -0.4228   -1.3001 O   0  0  0  0  0  0  0  0  0  0  0  0
   -3.4897    0.7819    0.0629 C   0  0  0  0  0  0  0  0  0  0  0  0
   -4.6322   -0.2062   -0.1883 C   0  0  0  0  0  0  0  0  0  0  0  0
   -4.4227    1.0455   -1.0336 C   0  0  0  0  0  0  0  0  0  0  0  0
    6.2198    0.0264   -1.4217 H   0  0  0  0  0  0  0  0  0  0  0  0
    4.7951   -0.4168   -2.3882 H   0  0  0  0  0  0  0  0  0  0  0  0
    2.9577   -1.2892    1.7718 H   0  0  0  0  0  0  0  0  0  0  0  0
    1.2905    1.1191    1.6416 H   0  0  0  0  0  0  0  0  0  0  0  0
    0.8689   -0.4290    2.4008 H   0  0  0  0  0  0  0  0  0  0  0  0
    0.0786   -1.3711    0.3333 H   0  0  0  0  0  0  0  0  0  0  0  0
    0.5619    0.0374   -0.6398 H   0  0  0  0  0  0  0  0  0  0  0  0
   -1.2045    0.8422    1.5459 H   0  0  0  0  0  0  0  0  0  0  0  0
   -3.6095    1.3336    1.0267 H   0  0  0  0  0  0  0  0  0  0  0  0
   -5.4915   -0.2052    0.5039 H   0  0  0  0  0  0  0  0  0  0  0  0
   -4.3936   -1.1846   -0.6367 H   0  0  0  0  0  0  0  0  0  0  0  0
   -4.0504    0.9391   -2.0640 H   0  0  0  0  0  0  0  0  0  0  0  0
   -5.1726    1.8654   -0.8383 H   0  0  0  0  0  0  0  0  0  0  0  0
  1  2  1  0
  2  3  2  0
  2  4  1  0
  4  5  2  0
  4  6  1  0
  6  7  1  0
  7  8  1  0
  8  9  1  0
  9 10  1  0
 10 11  2  0
 10 12  1  0
 12 13  1  0
 13 14  1  0
 14 12  1  0
  1 15  1  0
  1 16  1  0
  6 17  1  0
  7 18  1  0
  7 19  1  0
  8 20  1  0
  8 21  1  0
  9 22  1  0
 12 23  1  0
 13 24  1  0
 13 25  1  0
 14 26  1  0
 14 27  1  0
M  END
$$$$

     RDKit          3D

 27 27  0  0  0  0  0  0  0  0999 V2000
    6.0419    0.8180   -0.9215 N   0  0  0  0  0  0  0  0  0  0  0  0
    4.8541    0.9495   -0.1615 C   0  0  0  0  0  0  0  0  0  0  0  0
    4.9396    1.5531    0.9483 O   0  0  0  0  0  0  0  0  0  0  0  0
    3.5972    0.4218   -0.6240 C   0  0  0  0  0  0  0  0  0  0  0  0
    3.5546   -0.1738   -1.7369 O   0  0  0  0  0  0  0  0  0  0  0  0
    2.4098    0.5608    0.1497 N   0  0  0  0  0  0  0  0  0  0  0  0
    1.1977    0.0095   -0.3767 C   0  0  0  0  0  0  0  0  0  0  0  0
    0.0234    0.2308    0.5477 C   0  0  0  0  0  0  0  0  0  0  0  0
   -1.1579   -0.3582   -0.0636 N   0  0  0  0  0  0  0  0  0  0  0  0
   -2.4354   -0.3316    0.5353 C   0  0  0  0  0  0  0  0  0  0  0  0
   -2.5832    0.2215    1.6491 O   0  0  0  0  0  0  0  0  0  0  0  0
   -3.6352   -0.9374   -0.1000 C   0  0  0  0  0  0  0  0  0  0  0  0
   -4.8761   -0.0592   -0.0293 C   0  0  0  0  0  0  0  0  0  0  0  0
   -4.7954   -1.3513    0.7185 C   0  0  0  0  0  0  0  0  0  0  0  0
    6.4610    1.6345   -1.4130 H   0  0  0  0  0  0  0  0  0  0  0  0
    6.5254   -0.0963   -1.0082 H   0  0  0  0  0  0  0  0  0  0  0  0
    2.4732    1.0649    1.0800 H   0  0  0  0  0  0  0  0  0  0  0  0
    0.9398    0.5125   -1.3440 H   0  0  0  0  0  0  0  0  0  0  0  0
    1.2655   -1.0731   -0.6024 H   0  0  0  0  0  0  0  0  0  0  0  0
    0.2027   -0.1324    1.5713 H   0  0  0  0  0  0  0  0  0  0  0  0
   -0.0908    1.3501    0.6429 H   0  0  0  0  0  0  0  0  0  0  0  0
   -1.1009   -0.8430   -1.0087 H   0  0  0  0  0  0  0  0  0  0  0  0
   -3.4530   -1.4229   -1.1004 H   0  0  0  0  0  0  0  0  0  0  0  0
   -4.8028    0.9144    0.5159 H   0  0  0  0  0  0  0  0  0  0  0  0
   -5.5133    0.0333   -0.9377 H   0  0  0  0  0  0  0  0  0  0  0  0
   -5.3811   -2.2054    0.3056 H   0  0  0  0  0  0  0  0  0  0  0  0
   -4.6610   -1.2901    1.8280 H   0  0  0  0  0  0  0  0  0  0  0  0
  1  2  1  0
  2  3  2  0
  2  4  1  0
  4  5  2  0
  4  6  1  0
  6  7  1  0
  7  8  1  0
  8  9  1  0
  9 10  1  0
 10 11  2  0
 10 12  1  0
 12 13  1  0
 13 14  1  0
 14 12  1  0
  1 15  1  0
  1 16  1  0
  6 17  1  0
  7 18  1  0
  7 19  1  0
  8 20  1  0
  8 21  1  0
  9 22  1  0
 12 23  1  0
 13 24  1  0
 13 25  1  0
 14 26  1  0
 14 27  1  0
M  END
$$$$

     RDKit          3D

 27 27  0  0  0  0  0  0  0  0999 V2000
    4.9875   -1.1854    1.5557 N   0  0  0  0  0  0  0  0  0  0  0  0
    4.4573   -0.5672    0.3961 C   0  0  0  0  0  0  0  0  0  0  0  0
    5.1678   -0.1257   -0.5341 O   0  0  0  0  0  0  0  0  0  0  0  0
    2.9965   -0.4514    0.3059 C   0  0  0  0  0  0  0  0  0  0  0  0
    2.2523   -0.8838    1.2213 O   0  0  0  0  0  0  0  0  0  0  0  0
    2.3692    0.1549   -0.8217 N   0  0  0  0  0  0  0  0  0  0  0  0
    0.9503    0.3074   -0.9788 C   0  0  0  0  0  0  0  0  0  0  0  0
    0.3706    1.1440    0.0983 C   0  0  0  0  0  0  0  0  0  0  0  0
   -1.0528    1.3366   -0.0102 N   0  0  0  0  0  0  0  0  0  0  0  0
   -1.9890    0.2802    0.0097 C   0  0  0  0  0  0  0  0  0  0  0  0
   -1.5711   -0.8893    0.1278 O   0  0  0  0  0  0  0  0  0  0  0  0
   -3.4528    0.4807   -0.1026 C   0  0  0  0  0  0  0  0  0  0  0  0
   -4.4139   -0.5015    0.4199 C   0  0  0  0  0  0  0  0  0  0  0  0
   -4.1171   -0.5028   -1.0550 C   0  0  0  0  0  0  0  0  0  0  0  0
    5.1181   -2.2173    1.6265 H   0  0  0  0  0  0  0  0  0  0  0  0
    5.2605   -0.6135    2.3700 H   0  0  0  0  0  0  0  0  0  0  0  0
    3.0527    0.4997   -1.5672 H   0  0  0  0  0  0  0  0  0  0  0  0
    0.7700    0.7920   -1.9580 H   0  0  0  0  0  0  0  0  0  0  0  0
    0.5024   -0.7059   -0.9179 H   0  0  0  0  0  0  0  0  0  0  0  0
    0.6314    0.7205    1.0834 H   0  0  0  0  0  0  0  0  0  0  0  0
    0.8649    2.1574    0.0243 H   0  0  0  0  0  0  0  0  0  0  0  0
   -1.4310    2.2885   -0.1083 H   0  0  0  0  0  0  0  0  0  0  0  0
   -3.7900    1.5154   -0.2049 H   0  0  0  0  0  0  0  0  0  0  0  0
   -5.4134   -0.1382    0.7131 H   0  0  0  0  0  0  0  0  0  0  0  0
   -4.1035   -1.4170    0.9568 H   0  0  0  0  0  0  0  0  0  0  0  0
   -3.5223   -1.3383   -1.4654 H   0  0  0  0  0  0  0  0  0  0  0  0
   -4.8945   -0.1400   -1.7466 H   0  0  0  0  0  0  0  0  0  0  0  0
  1  2  1  0
  2  3  2  0
  2  4  1  0
  4  5  2  0
  4  6  1  0
  6  7  1  0
  7  8  1  0
  8  9  1  0
  9 10  1  0
 10 11  2  0
 10 12  1  0
 12 13  1  0
 13 14  1  0
 14 12  1  0
  1 15  1  0
  1 16  1  0
  6 17  1  0
  7 18  1  0
  7 19  1  0
  8 20  1  0
  8 21  1  0
  9 22  1  0
 12 23  1  0
 13 24  1  0
 13 25  1  0
 14 26  1  0
 14 27  1  0
M  END
$$$$

     RDKit          3D

 27 27  0  0  0  0  0  0  0  0999 V2000
    5.4530   -0.1066   -1.7575 N   0  0  0  0  0  0  0  0  0  0  0  0
    4.5680   -0.5391   -0.7333 C   0  0  0  0  0  0  0  0  0  0  0  0
    4.9242   -1.3298    0.1745 O   0  0  0  0  0  0  0  0  0  0  0  0
    3.1742   -0.0450   -0.7281 C   0  0  0  0  0  0  0  0  0  0  0  0
    2.7593    0.7452   -1.6065 O   0  0  0  0  0  0  0  0  0  0  0  0
    2.2670   -0.4605    0.2836 N   0  0  0  0  0  0  0  0  0  0  0  0
    0.8909    0.0154    0.3048 C   0  0  0  0  0  0  0  0  0  0  0  0
    0.1577   -0.5738    1.4692 C   0  0  0  0  0  0  0  0  0  0  0  0
   -1.1935   -0.1013    1.4976 N   0  0  0  0  0  0  0  0  0  0  0  0
   -2.1167   -0.3511    0.4542 C   0  0  0  0  0  0  0  0  0  0  0  0
   -1.7514   -1.0152   -0.5364 O   0  0  0  0  0  0  0  0  0  0  0  0
   -3.4984    0.1963    0.5879 C   0  0  0  0  0  0  0  0  0  0  0  0
   -3.9963    0.8885   -0.7074 C   0  0  0  0  0  0  0  0  0  0  0  0
   -4.6230   -0.3967   -0.1734 C   0  0  0  0  0  0  0  0  0  0  0  0
    5.2113   -0.4030   -2.7350 H   0  0  0  0  0  0  0  0  0  0  0  0
    6.2877    0.4717   -1.5217 H   0  0  0  0  0  0  0  0  0  0  0  0
    2.6142   -1.1128    1.0064 H   0  0  0  0  0  0  0  0  0  0  0  0
    0.3749   -0.2677   -0.6269 H   0  0  0  0  0  0  0  0  0  0  0  0
    0.9153    1.1246    0.3428 H   0  0  0  0  0  0  0  0  0  0  0  0
    0.6518   -0.2950    2.4488 H   0  0  0  0  0  0  0  0  0  0  0  0
    0.2233   -1.6849    1.3856 H   0  0  0  0  0  0  0  0  0  0  0  0
   -1.5198    0.4667    2.3460 H   0  0  0  0  0  0  0  0  0  0  0  0
   -3.7110    0.7690    1.5071 H   0  0  0  0  0  0  0  0  0  0  0  0
   -3.3987    0.7526   -1.6160 H   0  0  0  0  0  0  0  0  0  0  0  0
   -4.5333    1.8380   -0.5821 H   0  0  0  0  0  0  0  0  0  0  0  0
   -4.4930   -1.3225   -0.7369 H   0  0  0  0  0  0  0  0  0  0  0  0
   -5.6379   -0.2277    0.2523 H   0  0  0  0  0  0  0  0  0  0  0  0
  1  2  1  0
  2  3  2  0
  2  4  1  0
  4  5  2  0
  4  6  1  0
  6  7  1  0
  7  8  1  0
  8  9  1  0
  9 10  1  0
 10 11  2  0
 10 12  1  0
 12 13  1  0
 13 14  1  0
 14 12  1  0
  1 15  1  0
  1 16  1  0
  6 17  1  0
  7 18  1  0
  7 19  1  0
  8 20  1  0
  8 21  1  0
  9 22  1  0
 12 23  1  0
 13 24  1  0
 13 25  1  0
 14 26  1  0
 14 27  1  0
M  END
$$$$

     RDKit          3D

 27 27  0  0  0  0  0  0  0  0999 V2000
    5.6789    0.5112   -0.4443 N   0  0  0  0  0  0  0  0  0  0  0  0
    4.5794   -0.2954   -0.0463 C   0  0  0  0  0  0  0  0  0  0  0  0
    4.7868   -1.2852    0.6818 O   0  0  0  0  0  0  0  0  0  0  0  0
    3.2055    0.0152   -0.4764 C   0  0  0  0  0  0  0  0  0  0  0  0
    3.0014    1.0130   -1.2095 O   0  0  0  0  0  0  0  0  0  0  0  0
    2.1245   -0.7888   -0.0773 N   0  0  0  0  0  0  0  0  0  0  0  0
    0.7373   -0.5905   -0.4256 C   0  0  0  0  0  0  0  0  0  0  0  0
    0.3151    0.7592    0.1239 C   0  0  0  0  0  0  0  0  0  0  0  0
   -1.0533    1.0929   -0.1473 N   0  0  0  0  0  0  0  0  0  0  0  0
   -2.0878    0.2674    0.3515 C   0  0  0  0  0  0  0  0  0  0  0  0
   -1.7698   -0.7402    1.0251 O   0  0  0  0  0  0  0  0  0  0  0  0
   -3.5193    0.5783    0.0891 C   0  0  0  0  0  0  0  0  0  0  0  0
   -4.4529   -0.6193   -0.1442 C   0  0  0  0  0  0  0  0  0  0  0  0
   -4.5533    0.1929    1.0823 C   0  0  0  0  0  0  0  0  0  0  0  0
    5.4990    1.4738   -0.7971 H   0  0  0  0  0  0  0  0  0  0  0  0
    6.6417    0.1676   -0.3920 H   0  0  0  0  0  0  0  0  0  0  0  0
    2.3629   -1.6090    0.5331 H   0  0  0  0  0  0  0  0  0  0  0  0
    0.6078   -0.6163   -1.5402 H   0  0  0  0  0  0  0  0  0  0  0  0
    0.1560   -1.4302   -0.0274 H   0  0  0  0  0  0  0  0  0  0  0  0
    0.9807    1.5291   -0.2777 H   0  0  0  0  0  0  0  0  0  0  0  0
    0.5211    0.7088    1.2305 H   0  0  0  0  0  0  0  0  0  0  0  0
   -1.2654    1.9629   -0.7239 H   0  0  0  0  0  0  0  0  0  0  0  0
   -3.7006    1.4882   -0.5148 H   0  0  0  0  0  0  0  0  0  0  0  0
   -5.1514   -0.5097   -0.9941 H   0  0  0  0  0  0  0  0  0  0  0  0
   -3.9398   -1.6184   -0.0771 H   0  0  0  0  0  0  0  0  0  0  0  0
   -5.4380    0.8600    1.1569 H   0  0  0  0  0  0  0  0  0  0  0  0
   -4.2665   -0.3028    2.0410 H   0  0  0  0  0  0  0  0  0  0  0  0
  1  2  1  0
  2  3  2  0
  2  4  1  0
  4  5  2  0
  4  6  1  0
  6  7  1  0
  7  8  1  0
  8  9  1  0
  9 10  1  0
 10 11  2  0
 10 12  1  0
 12 13  1  0
 13 14  1  0
 14 12  1  0
  1 15  1  0
  1 16  1  0
  6 17  1  0
  7 18  1  0
  7 19  1  0
  8 20  1  0
  8 21  1  0
  9 22  1  0
 12 23  1  0
 13 24  1  0
 13 25  1  0
 14 26  1  0
 14 27  1  0
M  END
$$$$
