
     RDKit          3D

 25 24  0  0  0  0  0  0  0  0999 V2000
   -0.7280   -1.1881    1.0759 C   0  0  0  0  0  0  0  0  0  0  0  0
   -0.9396   -0.2992   -0.1059 C   0  0  2  0  0  0  0  0  0  0  0  0
    0.0790    0.7335   -0.2142 N   0  0  0  0  0  0  0  0  0  0  0  0
    1.3123    0.2089   -0.3421 O   0  0  0  0  0  0  0  0  0  0  0  0
    2.1038    0.5629    0.7490 C   0  0  0  0  0  0  0  0  0  0  0  0
    3.4557   -0.0024    0.6253 C   0  0  0  0  0  0  0  0  0  0  0  0
    3.7844   -0.7814   -0.4945 N   0  0  0  0  0  0  0  0  0  0  0  0
    4.2910    0.2288    1.5349 O   0  0  0  0  0  0  0  0  0  0  0  0
   -2.3220    0.3049   -0.0045 C   0  0  1  0  0  0  0  0  0  0  0  0
   -2.6234    1.1857   -1.1985 C   0  0  0  0  0  0  0  0  0  0  0  0
   -3.2353   -0.7435    0.0955 O   0  0  0  0  0  0  0  0  0  0  0  0
    0.2459   -1.7139    1.0382 H   0  0  0  0  0  0  0  0  0  0  0  0
   -0.8483   -0.6012    1.9889 H   0  0  0  0  0  0  0  0  0  0  0  0
   -1.5083   -1.9637    1.0683 H   0  0  0  0  0  0  0  0  0  0  0  0
   -0.9093   -0.9384   -1.0272 H   0  0  0  0  0  0  0  0  0  0  0  0
   -0.0883    1.3473   -1.0412 H   0  0  0  0  0  0  0  0  0  0  0  0
    2.1990    1.6644    0.7717 H   0  0  0  0  0  0  0  0  0  0  0  0
    1.6502    0.2132    1.7046 H   0  0  0  0  0  0  0  0  0  0  0  0
    4.6888   -0.5946   -0.9849 H   0  0  0  0  0  0  0  0  0  0  0  0
    3.1574   -1.5430   -0.8575 H   0  0  0  0  0  0  0  0  0  0  0  0
   -2.3284    0.9612    0.8902 H   0  0  0  0  0  0  0  0  0  0  0  0
   -2.3382    0.6273   -2.0970 H   0  0  0  0  0  0  0  0  0  0  0  0
   -2.1029    2.1400   -1.1270 H   0  0  0  0  0  0  0  0  0  0  0  0
   -3.7267    1.3517   -1.2349 H   0  0  0  0  0  0  0  0  0  0  0  0
   -3.2689   -1.1605   -0.8132 H   0  0  0  0  0  0  0  0  0  0  0  0
  1  2  1  0
  2  3  1  0
  3  4  1  0
  4  5  1  0
  5  6  1  0
  6  7  1  0
  6  8  2  0
  2  9  1  0
  9 10  1  0
  9 11  1  0
  1 12  1  0
  1 13  1  0
  1 14  1  0
  2 15  1  6
  3 16  1  0
  5 17  1  0
  5 18  1  0
  7 19  1  0
  7 20  1  0
  9 21  1  1
 10 22  1  0
 10 23  1  0
 10 24  1  0
 11 25  1  0
M  END
$$$$

     RDKit          3D

 25 24  0  0  0  0  0  0  0  0999 V2000
   -1.4188   -1.2341   -1.1287 C   0  0  0  0  0  0  0  0  0  0  0  0
   -0.9275   -0.1395   -0.2483 C   0  0  2  0  0  0  0  0  0  0  0  0
    0.2651   -0.4261    0.4626 N   0  0  0  0  0  0  0  0  0  0  0  0
    1.3352   -0.7058   -0.2760 O   0  0  0  0  0  0  0  0  0  0  0  0
    2.3230    0.2202    0.0580 C   0  0  0  0  0  0  0  0  0  0  0  0
    3.5669    0.0423   -0.6741 C   0  0  0  0  0  0  0  0  0  0  0  0
    4.6575    0.9000   -0.4468 N   0  0  0  0  0  0  0  0  0  0  0  0
    3.6850   -0.8749   -1.5159 O   0  0  0  0  0  0  0  0  0  0  0  0
   -2.0032    0.2375    0.7585 C   0  0  1  0  0  0  0  0  0  0  0  0
   -3.2807    0.6496    0.0369 C   0  0  0  0  0  0  0  0  0  0  0  0
   -2.2080   -0.8123    1.6217 O   0  0  0  0  0  0  0  0  0  0  0  0
   -1.2788   -2.2293   -0.6542 H   0  0  0  0  0  0  0  0  0  0  0  0
   -0.9987   -1.2082   -2.1449 H   0  0  0  0  0  0  0  0  0  0  0  0
   -2.5272   -1.1025   -1.2511 H   0  0  0  0  0  0  0  0  0  0  0  0
   -0.7505    0.7589   -0.8900 H   0  0  0  0  0  0  0  0  0  0  0  0
    0.4222    0.1222    1.3108 H   0  0  0  0  0  0  0  0  0  0  0  0
    1.8571    1.2368   -0.0967 H   0  0  0  0  0  0  0  0  0  0  0  0
    2.4760    0.1439    1.1557 H   0  0  0  0  0  0  0  0  0  0  0  0
    4.6320    1.8652   -0.8167 H   0  0  0  0  0  0  0  0  0  0  0  0
    5.4881    0.5877    0.0837 H   0  0  0  0  0  0  0  0  0  0  0  0
   -1.6984    1.1251    1.3577 H   0  0  0  0  0  0  0  0  0  0  0  0
   -3.9890   -0.1945    0.0895 H   0  0  0  0  0  0  0  0  0  0  0  0
   -3.0528    0.9649   -1.0084 H   0  0  0  0  0  0  0  0  0  0  0  0
   -3.7477    1.5465    0.5151 H   0  0  0  0  0  0  0  0  0  0  0  0
   -2.8267   -1.4734    1.2598 H   0  0  0  0  0  0  0  0  0  0  0  0
  1  2  1  0
  2  3  1  0
  3  4  1  0
  4  5  1  0
  5  6  1  0
  6  7  1  0
  6  8  2  0
  2  9  1  0
  9 10  1  0
  9 11  1  0
  1 12  1  0
  1 13  1  0
  1 14  1  0
  2 15  1  6
  3 16  1  0
  5 17  1  0
  5 18  1  0
  7 19  1  0
  7 20  1  0
  9 21  1  1
 10 22  1  0
 10 23  1  0
 10 24  1  0
 11 25  1  0
M  END
$$$$

     RDKit          3D

 25 24  0  0  0  0  0  0  0  0999 V2000
   -0.5767    0.3489    1.0278 C   0  0  0  0  0  0  0  0  0  0  0  0
   -0.8119   -0.2113   -0.3364 C   0  0  2  0  0  0  0  0  0  0  0  0
   -0.0551    0.4391   -1.3163 N   0  0  0  0  0  0  0  0  0  0  0  0
    1.2253    0.3925   -1.3717 O   0  0  0  0  0  0  0  0  0  0  0  0
    2.0007    0.0780   -0.3164 C   0  0  0  0  0  0  0  0  0  0  0  0
    3.4442    0.1077   -0.7557 C   0  0  0  0  0  0  0  0  0  0  0  0
    4.4934   -0.1814    0.1392 N   0  0  0  0  0  0  0  0  0  0  0  0
    3.6999    0.3980   -1.9477 O   0  0  0  0  0  0  0  0  0  0  0  0
   -2.2868   -0.0901   -0.7200 C   0  0  1  0  0  0  0  0  0  0  0  0
   -3.1594   -0.8375    0.2767 C   0  0  0  0  0  0  0  0  0  0  0  0
   -2.6918    1.2196   -0.8003 O   0  0  0  0  0  0  0  0  0  0  0  0
   -0.2560    1.4080    0.9613 H   0  0  0  0  0  0  0  0  0  0  0  0
   -1.5481    0.2746    1.6099 H   0  0  0  0  0  0  0  0  0  0  0  0
    0.1221   -0.2599    1.5944 H   0  0  0  0  0  0  0  0  0  0  0  0
   -0.5570   -1.2965   -0.3474 H   0  0  0  0  0  0  0  0  0  0  0  0
   -0.5477    1.1416   -1.8998 H   0  0  0  0  0  0  0  0  0  0  0  0
    1.7489   -0.9749    0.0045 H   0  0  0  0  0  0  0  0  0  0  0  0
    1.9846    0.7746    0.5500 H   0  0  0  0  0  0  0  0  0  0  0  0
    4.8519    0.5721    0.7744 H   0  0  0  0  0  0  0  0  0  0  0  0
    4.9345   -1.1060    0.2052 H   0  0  0  0  0  0  0  0  0  0  0  0
   -2.4671   -0.5613   -1.7073 H   0  0  0  0  0  0  0  0  0  0  0  0
   -4.0579   -1.2222   -0.2528 H   0  0  0  0  0  0  0  0  0  0  0  0
   -3.4747   -0.1783    1.1137 H   0  0  0  0  0  0  0  0  0  0  0  0
   -2.5584   -1.6879    0.6722 H   0  0  0  0  0  0  0  0  0  0  0  0
   -3.4567    1.4527   -0.2233 H   0  0  0  0  0  0  0  0  0  0  0  0
  1  2  1  0
  2  3  1  0
  3  4  1  0
  4  5  1  0
  5  6  1  0
  6  7  1  0
  6  8  2  0
  2  9  1  0
  9 10  1  0
  9 11  1  0
  1 12  1  0
  1 13  1  0
  1 14  1  0
  2 15  1  1
  3 16  1  0
  5 17  1  0
  5 18  1  0
  7 19  1  0
  7 20  1  0
  9 21  1  6
 10 22  1  0
 10 23  1  0
 10 24  1  0
 11 25  1  0
M  END
$$$$

     RDKit          3D

 25 24  0  0  0  0  0  0  0  0999 V2000
   -0.4955    1.6087   -0.0211 C   0  0  0  0  0  0  0  0  0  0  0  0
   -1.0756    0.2449    0.2675 C   0  0  2  0  0  0  0  0  0  0  0  0
   -0.0935   -0.7447   -0.1292 N   0  0  0  0  0  0  0  0  0  0  0  0
    1.0564   -0.6220    0.5277 O   0  0  0  0  0  0  0  0  0  0  0  0
    2.0673   -0.3614   -0.3905 C   0  0  0  0  0  0  0  0  0  0  0  0
    3.3489   -0.2283    0.3774 C   0  0  0  0  0  0  0  0  0  0  0  0
    4.5135    0.0405   -0.3726 N   0  0  0  0  0  0  0  0  0  0  0  0
    3.4184   -0.3430    1.6130 O   0  0  0  0  0  0  0  0  0  0  0  0
   -2.3756    0.0817   -0.4663 C   0  0  1  0  0  0  0  0  0  0  0  0
   -3.0200   -1.2346   -0.0971 C   0  0  0  0  0  0  0  0  0  0  0  0
   -3.2360    1.0916    0.0034 O   0  0  0  0  0  0  0  0  0  0  0  0
    0.4347    1.7756    0.5602 H   0  0  0  0  0  0  0  0  0  0  0  0
   -0.2572    1.7062   -1.1051 H   0  0  0  0  0  0  0  0  0  0  0  0
   -1.2433    2.4102    0.1885 H   0  0  0  0  0  0  0  0  0  0  0  0
   -1.2638    0.1620    1.3560 H   0  0  0  0  0  0  0  0  0  0  0  0
   -0.4694   -1.6924   -0.2149 H   0  0  0  0  0  0  0  0  0  0  0  0
    1.8531    0.5663   -0.9517 H   0  0  0  0  0  0  0  0  0  0  0  0
    2.1565   -1.2246   -1.0862 H   0  0  0  0  0  0  0  0  0  0  0  0
    4.9667   -0.7316   -0.9074 H   0  0  0  0  0  0  0  0  0  0  0  0
    4.9400    1.0063   -0.4069 H   0  0  0  0  0  0  0  0  0  0  0  0
   -2.2385    0.2076   -1.5462 H   0  0  0  0  0  0  0  0  0  0  0  0
   -2.7905   -2.0491   -0.7871 H   0  0  0  0  0  0  0  0  0  0  0  0
   -4.1161   -1.1232   -0.0337 H   0  0  0  0  0  0  0  0  0  0  0  0
   -2.6482   -1.5382    0.9036 H   0  0  0  0  0  0  0  0  0  0  0  0
   -3.4324    0.9915    0.9540 H   0  0  0  0  0  0  0  0  0  0  0  0
  1  2  1  0
  2  3  1  0
  3  4  1  0
  4  5  1  0
  5  6  1  0
  6  7  1  0
  6  8  2  0
  2  9  1  0
  9 10  1  0
  9 11  1  0
  1 12  1  0
  1 13  1  0
  1 14  1  0
  2 15  1  1
  3 16  1  0
  5 17  1  0
  5 18  1  0
  7 19  1  0
  7 20  1  0
  9 21  1  6
 10 22  1  0
 10 23  1  0
 10 24  1  0
 11 25  1  0
M  END
$$$$

     RDKit          3D

 25 24  0  0  0  0  0  0  0  0999 V2000
   -1.8800   -1.6346   -0.4936 C   0  0  0  0  0  0  0  0  0  0  0  0
   -0.9927   -0.4057   -0.4600 C   0  0  2  0  0  0  0  0  0  0  0  0
    0.1634   -0.7361    0.3276 N   0  0  0  0  0  0  0  0  0  0  0  0
    1.0441    0.2657    0.4448 O   0  0  0  0  0  0  0  0  0  0  0  0
    2.3206   -0.2878    0.3472 C   0  0  0  0  0  0  0  0  0  0  0  0
    3.3722    0.7600    0.4673 C   0  0  0  0  0  0  0  0  0  0  0  0
    4.7363    0.3912    0.3927 N   0  0  0  0  0  0  0  0  0  0  0  0
    3.0021    1.9504    0.6329 O   0  0  0  0  0  0  0  0  0  0  0  0
   -1.7290    0.7333    0.2031 C   0  0  1  0  0  0  0  0  0  0  0  0
   -2.8718    1.2479   -0.6366 C   0  0  0  0  0  0  0  0  0  0  0  0
   -2.1350    0.3778    1.4757 O   0  0  0  0  0  0  0  0  0  0  0  0
   -2.9382   -1.4094   -0.3587 H   0  0  0  0  0  0  0  0  0  0  0  0
   -1.6450   -2.1736   -1.4383 H   0  0  0  0  0  0  0  0  0  0  0  0
   -1.6010   -2.3526    0.3305 H   0  0  0  0  0  0  0  0  0  0  0  0
   -0.6687   -0.0841   -1.4650 H   0  0  0  0  0  0  0  0  0  0  0  0
   -0.0476   -1.2273    1.2022 H   0  0  0  0  0  0  0  0  0  0  0  0
    2.4267   -0.8770   -0.5992 H   0  0  0  0  0  0  0  0  0  0  0  0
    2.4784   -0.9965    1.1940 H   0  0  0  0  0  0  0  0  0  0  0  0
    5.3805    1.0098   -0.1424 H   0  0  0  0  0  0  0  0  0  0  0  0
    5.1091   -0.4674    0.8502 H   0  0  0  0  0  0  0  0  0  0  0  0
   -1.0040    1.5914    0.3108 H   0  0  0  0  0  0  0  0  0  0  0  0
   -3.4463    0.4315   -1.0806 H   0  0  0  0  0  0  0  0  0  0  0  0
   -2.4761    1.8749   -1.4780 H   0  0  0  0  0  0  0  0  0  0  0  0
   -3.5033    1.8847    0.0413 H   0  0  0  0  0  0  0  0  0  0  0  0
   -3.0949    0.1335    1.5273 H   0  0  0  0  0  0  0  0  0  0  0  0
  1  2  1  0
  2  3  1  0
  3  4  1  0
  4  5  1  0
  5  6  1  0
  6  7  1  0
  6  8  2  0
  2  9  1  0
  9 10  1  0
  9 11  1  0
  1 12  1  0
  1 13  1  0
  1 14  1  0
  2 15  1  6
  3 16  1  0
  5 17  1  0
  5 18  1  0
  7 19  1  0
  7 20  1  0
  9 21  1  1
 10 22  1  0
 10 23  1  0
 10 24  1  0
 11 25  1  0
M  END
$$$$

     RDKit          3D

 25 24  0  0  0  0  0  0  0  0999 V2000
   -1.4429   -0.7934   -1.3996 C   0  0  0  0  0  0  0  0  0  0  0  0
   -1.0937    0.3758   -0.4839 C   0  0  2  0  0  0  0  0  0  0  0  0
    0.2149    0.3784   -0.2030 N   0  0  0  0  0  0  0  0  0  0  0  0
    1.1030    0.8917    0.5428 O   0  0  0  0  0  0  0  0  0  0  0  0
    2.3457    0.8457   -0.2156 C   0  0  0  0  0  0  0  0  0  0  0  0
    3.1794   -0.1443    0.5361 C   0  0  0  0  0  0  0  0  0  0  0  0
    4.5276   -0.2148    0.1247 N   0  0  0  0  0  0  0  0  0  0  0  0
    2.7465   -0.8646    1.4272 O   0  0  0  0  0  0  0  0  0  0  0  0
   -2.0416    0.5938    0.6304 C   0  0  1  0  0  0  0  0  0  0  0  0
   -3.3746   -0.1197    0.2049 C   0  0  0  0  0  0  0  0  0  0  0  0
   -1.7132   -0.1405    1.8037 O   0  0  0  0  0  0  0  0  0  0  0  0
   -1.2698   -1.6942   -0.8367 H   0  0  0  0  0  0  0  0  0  0  0  0
   -0.6113   -0.7813   -2.1851 H   0  0  0  0  0  0  0  0  0  0  0  0
   -2.3658   -0.6513   -1.9313 H   0  0  0  0  0  0  0  0  0  0  0  0
   -1.3583    1.3025   -1.1971 H   0  0  0  0  0  0  0  0  0  0  0  0
    0.6159   -0.6627   -0.3917 H   0  0  0  0  0  0  0  0  0  0  0  0
    2.7713    1.8502   -0.1068 H   0  0  0  0  0  0  0  0  0  0  0  0
    2.1207    0.6141   -1.2140 H   0  0  0  0  0  0  0  0  0  0  0  0
    5.2192    0.4600    0.4791 H   0  0  0  0  0  0  0  0  0  0  0  0
    4.8484   -0.9443   -0.5672 H   0  0  0  0  0  0  0  0  0  0  0  0
   -2.3189    1.5983    0.8869 H   0  0  0  0  0  0  0  0  0  0  0  0
   -3.1002   -1.1729   -0.0717 H   0  0  0  0  0  0  0  0  0  0  0  0
   -3.9976   -0.1942    1.0933 H   0  0  0  0  0  0  0  0  0  0  0  0
   -3.8084    0.3893   -0.6372 H   0  0  0  0  0  0  0  0  0  0  0  0
   -1.1961   -0.9216    1.6750 H   0  0  0  0  0  0  0  0  0  0  0  0
  1  2  1  0
  2  3  1  0
  3  4  1  0
  4  5  1  0
  5  6  1  0
  6  7  1  0
  6  8  2  0
  2  9  1  0
  9 10  1  0
  9 11  1  0
  1 12  1  0
  1 13  1  0
  1 14  1  0
  2 15  1  6
  3 16  1  0
  5 17  1  0
  5 18  1  0
  7 19  1  0
  7 20  1  0
  9 21  1  1
 10 22  1  0
 10 23  1  0
 10 24  1  0
 11 25  1  0
M  END
$$$$

     RDKit          3D

 25 24  0  0  0  0  0  0  0  0999 V2000
   -0.5218    1.0977    1.1287 C   0  0  0  0  0  0  0  0  0  0  0  0
   -0.7960   -0.1416    0.3112 C   0  0  2  0  0  0  0  0  0  0  0  0
   -0.0931   -0.1075   -0.9340 N   0  0  0  0  0  0  0  0  0  0  0  0
    1.2241   -0.0276   -0.8607 O   0  0  0  0  0  0  0  0  0  0  0  0
    1.8336   -0.7808    0.1102 C   0  0  0  0  0  0  0  0  0  0  0  0
    3.3176   -0.6126    0.0919 C   0  0  0  0  0  0  0  0  0  0  0  0
    3.9594    0.2414   -0.8455 N   0  0  0  0  0  0  0  0  0  0  0  0
    4.0480   -1.2252    0.9103 O   0  0  0  0  0  0  0  0  0  0  0  0
   -2.2765   -0.3489    0.0867 C   0  0  1  0  0  0  0  0  0  0  0  0
   -2.9049    0.8055   -0.6597 C   0  0  0  0  0  0  0  0  0  0  0  0
   -2.4717   -1.5554   -0.5760 O   0  0  0  0  0  0  0  0  0  0  0  0
   -1.3922    1.7949    1.1165 H   0  0  0  0  0  0  0  0  0  0  0  0
   -0.2520    0.8584    2.1775 H   0  0  0  0  0  0  0  0  0  0  0  0
    0.3221    1.6320    0.6581 H   0  0  0  0  0  0  0  0  0  0  0  0
   -0.4567   -1.0124    0.9091 H   0  0  0  0  0  0  0  0  0  0  0  0
   -0.4776   -0.6955   -1.6785 H   0  0  0  0  0  0  0  0  0  0  0  0
    1.4735   -0.4222    1.1124 H   0  0  0  0  0  0  0  0  0  0  0  0
    1.6529   -1.8805   -0.0102 H   0  0  0  0  0  0  0  0  0  0  0  0
    4.3487    1.1617   -0.5255 H   0  0  0  0  0  0  0  0  0  0  0  0
    4.0308   -0.0660   -1.8392 H   0  0  0  0  0  0  0  0  0  0  0  0
   -2.8013   -0.4284    1.0616 H   0  0  0  0  0  0  0  0  0  0  0  0
   -3.1718    1.5687    0.0830 H   0  0  0  0  0  0  0  0  0  0  0  0
   -3.8734    0.4263   -1.0757 H   0  0  0  0  0  0  0  0  0  0  0  0
   -2.2852    1.1717   -1.4871 H   0  0  0  0  0  0  0  0  0  0  0  0
   -2.4368   -1.4537   -1.5625 H   0  0  0  0  0  0  0  0  0  0  0  0
  1  2  1  0
  2  3  1  0
  3  4  1  0
  4  5  1  0
  5  6  1  0
  6  7  1  0
  6  8  2  0
  2  9  1  0
  9 10  1  0
  9 11  1  0
  1 12  1  0
  1 13  1  0
  1 14  1  0
  2 15  1  1
  3 16  1  0
  5 17  1  0
  5 18  1  0
  7 19  1  0
  7 20  1  0
  9 21  1  1
 10 22  1  0
 10 23  1  0
 10 24  1  0
 11 25  1  0
M  END
$$$$

     RDKit          3D

 25 24  0  0  0  0  0  0  0  0999 V2000
   -1.4482   -1.2745    1.1691 C   0  0  0  0  0  0  0  0  0  0  0  0
   -1.0276   -0.6312   -0.1117 C   0  0  2  0  0  0  0  0  0  0  0  0
   -0.1567    0.4882    0.2013 N   0  0  0  0  0  0  0  0  0  0  0  0
    0.9480    0.0869    0.8759 O   0  0  0  0  0  0  0  0  0  0  0  0
    2.0366    0.3423    0.0470 C   0  0  0  0  0  0  0  0  0  0  0  0
    3.3262   -0.0527    0.6657 C   0  0  0  0  0  0  0  0  0  0  0  0
    4.5017    0.1595   -0.0832 N   0  0  0  0  0  0  0  0  0  0  0  0
    3.3453   -0.5645    1.8359 O   0  0  0  0  0  0  0  0  0  0  0  0
   -2.2257   -0.0396   -0.8609 C   0  0  1  0  0  0  0  0  0  0  0  0
   -2.8774    0.9934    0.0416 C   0  0  0  0  0  0  0  0  0  0  0  0
   -1.8394    0.5954   -2.0146 O   0  0  0  0  0  0  0  0  0  0  0  0
   -1.5642   -0.4775    1.9359 H   0  0  0  0  0  0  0  0  0  0  0  0
   -0.6102   -1.9209    1.5214 H   0  0  0  0  0  0  0  0  0  0  0  0
   -2.3676   -1.8840    1.0681 H   0  0  0  0  0  0  0  0  0  0  0  0
   -0.4783   -1.3298   -0.7627 H   0  0  0  0  0  0  0  0  0  0  0  0
    0.0686    0.9575   -0.7010 H   0  0  0  0  0  0  0  0  0  0  0  0
    1.8873   -0.2550   -0.8777 H   0  0  0  0  0  0  0  0  0  0  0  0
    2.0545    1.4082   -0.2047 H   0  0  0  0  0  0  0  0  0  0  0  0
    4.8898    1.1070   -0.1940 H   0  0  0  0  0  0  0  0  0  0  0  0
    4.9715   -0.6458   -0.5208 H   0  0  0  0  0  0  0  0  0  0  0  0
   -2.9448   -0.8303   -1.0870 H   0  0  0  0  0  0  0  0  0  0  0  0
   -2.1492    1.8431    0.1700 H   0  0  0  0  0  0  0  0  0  0  0  0
   -3.7881    1.3955   -0.4262 H   0  0  0  0  0  0  0  0  0  0  0  0
   -3.0786    0.5381    1.0212 H   0  0  0  0  0  0  0  0  0  0  0  0
   -1.4735   -0.0094   -2.7086 H   0  0  0  0  0  0  0  0  0  0  0  0
  1  2  1  0
  2  3  1  0
  3  4  1  0
  4  5  1  0
  5  6  1  0
  6  7  1  0
  6  8  2  0
  2  9  1  0
  9 10  1  0
  9 11  1  0
  1 12  1  0
  1 13  1  0
  1 14  1  0
  2 15  1  6
  3 16  1  0
  5 17  1  0
  5 18  1  0
  7 19  1  0
  7 20  1  0
  9 21  1  6
 10 22  1  0
 10 23  1  0
 10 24  1  0
 11 25  1  0
M  END
$$$$
