
     RDKit          3D

 22 21  0  0  0  0  0  0  0  0999 V2000
   -4.0499   -0.4678    0.1986 N   0  0  0  0  0  0  0  0  0  0  0  0
   -2.8591    0.0054    0.7982 C   0  0  0  0  0  0  0  0  0  0  0  0
   -2.8339    0.1632    2.0422 O   0  0  0  0  0  0  0  0  0  0  0  0
   -1.6266    0.3289    0.0342 C   0  0  0  0  0  0  0  0  0  0  0  0
   -0.5396    0.8042    0.9400 C   0  0  0  0  0  0  0  0  0  0  0  0
    0.7497    1.1633    0.2471 C   0  0  0  0  0  0  0  0  0  0  0  0
    1.2581    0.0131   -0.4339 N   0  0  0  0  0  0  0  0  0  0  0  0
    2.7366    0.3172   -1.2593 S   0  0  0  0  0  6  0  0  0  0  0  0
    4.1049    0.0148   -0.2543 N   0  0  0  0  0  0  0  0  0  0  0  0
    2.8106   -0.6543   -2.4069 O   0  0  0  0  0  0  0  0  0  0  0  0
    2.8389    1.6965   -1.7945 O   0  0  0  0  0  0  0  0  0  0  0  0
   -4.7115   -1.1160    0.6821 H   0  0  0  0  0  0  0  0  0  0  0  0
   -4.2784   -0.1490   -0.7850 H   0  0  0  0  0  0  0  0  0  0  0  0
   -1.8434    1.0987   -0.7590 H   0  0  0  0  0  0  0  0  0  0  0  0
   -1.3460   -0.5880   -0.5237 H   0  0  0  0  0  0  0  0  0  0  0  0
   -0.9053    1.6709    1.5517 H   0  0  0  0  0  0  0  0  0  0  0  0
   -0.3752   -0.0082    1.7043 H   0  0  0  0  0  0  0  0  0  0  0  0
    0.5334    2.0052   -0.4563 H   0  0  0  0  0  0  0  0  0  0  0  0
    1.4758    1.5289    1.0109 H   0  0  0  0  0  0  0  0  0  0  0  0
    0.5697   -0.3702   -1.0945 H   0  0  0  0  0  0  0  0  0  0  0  0
    4.0979   -0.9893    0.0280 H   0  0  0  0  0  0  0  0  0  0  0  0
    4.1931    0.6704    0.5302 H   0  0  0  0  0  0  0  0  0  0  0  0
  1  2  1  0
  2  3  2  0
  2  4  1  0
  4  5  1  0
  5  6  1  0
  6  7  1  0
  7  8  1  0
  8  9  1  0
  8 10  2  0
  8 11  2  0
  1 12  1  0
  1 13  1  0
  4 14  1  0
  4 15  1  0
  5 16  1  0
  5 17  1  0
  6 18  1  0
  6 19  1  0
  7 20  1  0
  9 21  1  0
  9 22  1  0
M  END
$$$$

     RDKit          3D

 22 21  0  0  0  0  0  0  0  0999 V2000
   -4.2355   -0.7020   -0.0055 N   0  0  0  0  0  0  0  0  0  0  0  0
   -3.0415   -0.4923   -0.7230 C   0  0  0  0  0  0  0  0  0  0  0  0
   -3.0388   -0.2721   -1.9438 O   0  0  0  0  0  0  0  0  0  0  0  0
   -1.7623   -0.5373    0.0053 C   0  0  0  0  0  0  0  0  0  0  0  0
   -0.5702   -0.2965   -0.8860 C   0  0  0  0  0  0  0  0  0  0  0  0
    0.6652   -0.3720   -0.0048 C   0  0  0  0  0  0  0  0  0  0  0  0
    1.8775   -0.1557   -0.7522 N   0  0  0  0  0  0  0  0  0  0  0  0
    3.1965   -0.2679    0.3637 S   0  0  0  0  0  6  0  0  0  0  0  0
    3.5670    1.2723    1.0517 N   0  0  0  0  0  0  0  0  0  0  0  0
    2.8342   -1.2036    1.4824 O   0  0  0  0  0  0  0  0  0  0  0  0
    4.3957   -0.7938   -0.3812 O   0  0  0  0  0  0  0  0  0  0  0  0
   -4.2804   -0.5786    1.0266 H   0  0  0  0  0  0  0  0  0  0  0  0
   -5.0986   -0.9872   -0.5083 H   0  0  0  0  0  0  0  0  0  0  0  0
   -1.7347    0.2159    0.8078 H   0  0  0  0  0  0  0  0  0  0  0  0
   -1.6889   -1.5631    0.4674 H   0  0  0  0  0  0  0  0  0  0  0  0
   -0.6660    0.7344   -1.3020 H   0  0  0  0  0  0  0  0  0  0  0  0
   -0.5386   -1.0325   -1.7045 H   0  0  0  0  0  0  0  0  0  0  0  0
    0.7180   -1.3921    0.4298 H   0  0  0  0  0  0  0  0  0  0  0  0
    0.5923    0.3945    0.7741 H   0  0  0  0  0  0  0  0  0  0  0  0
    1.9945   -0.9746   -1.4119 H   0  0  0  0  0  0  0  0  0  0  0  0
    4.1225    1.0870    1.9254 H   0  0  0  0  0  0  0  0  0  0  0  0
    2.6922    1.7958    1.2890 H   0  0  0  0  0  0  0  0  0  0  0  0
  1  2  1  0
  2  3  2  0
  2  4  1  0
  4  5  1  0
  5  6  1  0
  6  7  1  0
  7  8  1  0
  8  9  1  0
  8 10  2  0
  8 11  2  0
  1 12  1  0
  1 13  1  0
  4 14  1  0
  4 15  1  0
  5 16  1  0
  5 17  1  0
  6 18  1  0
  6 19  1  0
  7 20  1  0
  9 21  1  0
  9 22  1  0
M  END
$$$$

     RDKit          3D

 22 21  0  0  0  0  0  0  0  0999 V2000
   -4.0108    0.5491   -0.9537 N   0  0  0  0  0  0  0  0  0  0  0  0
   -2.9718    0.2831   -0.0276 C   0  0  0  0  0  0  0  0  0  0  0  0
   -3.2359    0.3482    1.1982 O   0  0  0  0  0  0  0  0  0  0  0  0
   -1.5998   -0.0651   -0.4669 C   0  0  0  0  0  0  0  0  0  0  0  0
   -0.7401   -0.2859    0.7332 C   0  0  0  0  0  0  0  0  0  0  0  0
    0.6789   -0.6473    0.4001 C   0  0  0  0  0  0  0  0  0  0  0  0
    1.3466    0.3801   -0.3727 N   0  0  0  0  0  0  0  0  0  0  0  0
    2.9410   -0.1599   -0.6777 S   0  0  0  0  0  6  0  0  0  0  0  0
    3.9933    0.3545    0.5937 N   0  0  0  0  0  0  0  0  0  0  0  0
    2.9370   -1.6610   -0.6967 O   0  0  0  0  0  0  0  0  0  0  0  0
    3.4869    0.3692   -1.9713 O   0  0  0  0  0  0  0  0  0  0  0  0
   -3.7318    1.0285   -1.8472 H   0  0  0  0  0  0  0  0  0  0  0  0
   -4.9865    0.2710   -0.7292 H   0  0  0  0  0  0  0  0  0  0  0  0
   -1.6969   -1.0109   -1.0575 H   0  0  0  0  0  0  0  0  0  0  0  0
   -1.1965    0.6928   -1.1710 H   0  0  0  0  0  0  0  0  0  0  0  0
   -1.1957   -1.0979    1.3338 H   0  0  0  0  0  0  0  0  0  0  0  0
   -0.7016    0.6250    1.3699 H   0  0  0  0  0  0  0  0  0  0  0  0
    1.2503   -0.7667    1.3430 H   0  0  0  0  0  0  0  0  0  0  0  0
    0.7501   -1.6411   -0.1189 H   0  0  0  0  0  0  0  0  0  0  0  0
    0.8376    0.6944   -1.2012 H   0  0  0  0  0  0  0  0  0  0  0  0
    4.4577    1.2585    0.3614 H   0  0  0  0  0  0  0  0  0  0  0  0
    3.3878    0.4810    1.4355 H   0  0  0  0  0  0  0  0  0  0  0  0
  1  2  1  0
  2  3  2  0
  2  4  1  0
  4  5  1  0
  5  6  1  0
  6  7  1  0
  7  8  1  0
  8  9  1  0
  8 10  2  0
  8 11  2  0
  1 12  1  0
  1 13  1  0
  4 14  1  0
  4 15  1  0
  5 16  1  0
  5 17  1  0
  6 18  1  0
  6 19  1  0
  7 20  1  0
  9 21  1  0
  9 22  1  0
M  END
$$$$

     RDKit          3D

 22 21  0  0  0  0  0  0  0  0999 V2000
    4.1994   -0.9496   -0.1363 N   0  0  0  0  0  0  0  0  0  0  0  0
    3.1158   -0.0337   -0.1673 C   0  0  0  0  0  0  0  0  0  0  0  0
    3.3393    1.2017   -0.2082 O   0  0  0  0  0  0  0  0  0  0  0  0
    1.7355   -0.5128   -0.1520 C   0  0  0  0  0  0  0  0  0  0  0  0
    0.7226    0.6138   -0.1901 C   0  0  0  0  0  0  0  0  0  0  0  0
   -0.6367   -0.0258   -0.1695 C   0  0  0  0  0  0  0  0  0  0  0  0
   -1.7168    0.9220   -0.2018 N   0  0  0  0  0  0  0  0  0  0  0  0
   -3.2476    0.1936   -0.1785 S   0  0  0  0  0  6  0  0  0  0  0  0
   -3.7879   -0.0097    1.4279 N   0  0  0  0  0  0  0  0  0  0  0  0
   -4.2137    1.0762   -0.9212 O   0  0  0  0  0  0  0  0  0  0  0  0
   -3.1443   -1.1643   -0.8348 O   0  0  0  0  0  0  0  0  0  0  0  0
    4.4964   -1.5277   -0.9559 H   0  0  0  0  0  0  0  0  0  0  0  0
    4.7780   -1.0992    0.7394 H   0  0  0  0  0  0  0  0  0  0  0  0
    1.5222   -1.1703   -1.0447 H   0  0  0  0  0  0  0  0  0  0  0  0
    1.4825   -1.1191    0.7577 H   0  0  0  0  0  0  0  0  0  0  0  0
    0.8678    1.2606    0.6989 H   0  0  0  0  0  0  0  0  0  0  0  0
    0.8771    1.2619   -1.0794 H   0  0  0  0  0  0  0  0  0  0  0  0
   -0.6864   -0.6542    0.7451 H   0  0  0  0  0  0  0  0  0  0  0  0
   -0.7699   -0.7075   -1.0342 H   0  0  0  0  0  0  0  0  0  0  0  0
   -1.5889    1.7098   -0.8273 H   0  0  0  0  0  0  0  0  0  0  0  0
   -2.9670   -0.0985    2.0552 H   0  0  0  0  0  0  0  0  0  0  0  0
   -4.3773    0.8328    1.6768 H   0  0  0  0  0  0  0  0  0  0  0  0
  1  2  1  0
  2  3  2  0
  2  4  1  0
  4  5  1  0
  5  6  1  0
  6  7  1  0
  7  8  1  0
  8  9  1  0
  8 10  2  0
  8 11  2  0
  1 12  1  0
  1 13  1  0
  4 14  1  0
  4 15  1  0
  5 16  1  0
  5 17  1  0
  6 18  1  0
  6 19  1  0
  7 20  1  0
  9 21  1  0
  9 22  1  0
M  END
$$$$

     RDKit          3D

 22 21  0  0  0  0  0  0  0  0999 V2000
    3.2335    0.6352    0.3395 N   0  0  0  0  0  0  0  0  0  0  0  0
    2.1669    0.0474   -0.3792 C   0  0  0  0  0  0  0  0  0  0  0  0
    1.8270    0.5797   -1.4636 O   0  0  0  0  0  0  0  0  0  0  0  0
    1.4806   -1.1521    0.1338 C   0  0  0  0  0  0  0  0  0  0  0  0
    0.3437   -1.6283   -0.7190 C   0  0  0  0  0  0  0  0  0  0  0  0
   -0.7567   -0.6061   -0.8768 C   0  0  0  0  0  0  0  0  0  0  0  0
   -1.2596   -0.3080    0.4460 N   0  0  0  0  0  0  0  0  0  0  0  0
   -2.5232    0.8442    0.4431 S   0  0  0  0  0  6  0  0  0  0  0  0
   -2.0277    2.4413    0.5778 N   0  0  0  0  0  0  0  0  0  0  0  0
   -3.4264    0.5150    1.6246 O   0  0  0  0  0  0  0  0  0  0  0  0
   -3.3861    0.6934   -0.7819 O   0  0  0  0  0  0  0  0  0  0  0  0
    3.2137    0.7070    1.3767 H   0  0  0  0  0  0  0  0  0  0  0  0
    4.0707    1.0136   -0.1493 H   0  0  0  0  0  0  0  0  0  0  0  0
    2.2411   -1.9611    0.2271 H   0  0  0  0  0  0  0  0  0  0  0  0
    1.0930   -0.9688    1.1563 H   0  0  0  0  0  0  0  0  0  0  0  0
    0.7905   -1.9046   -1.7092 H   0  0  0  0  0  0  0  0  0  0  0  0
   -0.0363   -2.5821   -0.3007 H   0  0  0  0  0  0  0  0  0  0  0  0
   -0.4682    0.2640   -1.4569 H   0  0  0  0  0  0  0  0  0  0  0  0
   -1.6028   -1.1338   -1.4061 H   0  0  0  0  0  0  0  0  0  0  0  0
   -1.5788   -1.1881    0.8862 H   0  0  0  0  0  0  0  0  0  0  0  0
   -1.7310    2.7880    1.4809 H   0  0  0  0  0  0  0  0  0  0  0  0
   -1.6640    2.9039   -0.2583 H   0  0  0  0  0  0  0  0  0  0  0  0
  1  2  1  0
  2  3  2  0
  2  4  1  0
  4  5  1  0
  5  6  1  0
  6  7  1  0
  7  8  1  0
  8  9  1  0
  8 10  2  0
  8 11  2  0
  1 12  1  0
  1 13  1  0
  4 14  1  0
  4 15  1  0
  5 16  1  0
  5 17  1  0
  6 18  1  0
  6 19  1  0
  7 20  1  0
  9 21  1  0
  9 22  1  0
M  END
$$$$

     RDKit          3D

 22 21  0  0  0  0  0  0  0  0999 V2000
    3.9398    0.3861   -0.3817 N   0  0  0  0  0  0  0  0  0  0  0  0
    2.9225    0.0766    0.5305 C   0  0  0  0  0  0  0  0  0  0  0  0
    3.2323   -0.3119    1.6898 O   0  0  0  0  0  0  0  0  0  0  0  0
    1.4717    0.1740    0.2277 C   0  0  0  0  0  0  0  0  0  0  0  0
    0.6140   -0.2152    1.3797 C   0  0  0  0  0  0  0  0  0  0  0  0
   -0.8373   -0.0891    0.9938 C   0  0  0  0  0  0  0  0  0  0  0  0
   -1.2064   -0.9255   -0.1223 N   0  0  0  0  0  0  0  0  0  0  0  0
   -2.8966   -0.6535   -0.4245 S   0  0  0  0  0  6  0  0  0  0  0  0
   -3.0636    0.6558   -1.5643 N   0  0  0  0  0  0  0  0  0  0  0  0
   -3.5340   -1.8561   -1.0696 O   0  0  0  0  0  0  0  0  0  0  0  0
   -3.5519   -0.3428    0.8697 O   0  0  0  0  0  0  0  0  0  0  0  0
    4.4990    1.2682   -0.3983 H   0  0  0  0  0  0  0  0  0  0  0  0
    4.1727   -0.3194   -1.1190 H   0  0  0  0  0  0  0  0  0  0  0  0
    1.2736   -0.5558   -0.6034 H   0  0  0  0  0  0  0  0  0  0  0  0
    1.2588    1.2050   -0.0978 H   0  0  0  0  0  0  0  0  0  0  0  0
    0.7673    0.4337    2.2654 H   0  0  0  0  0  0  0  0  0  0  0  0
    0.8294   -1.2449    1.6883 H   0  0  0  0  0  0  0  0  0  0  0  0
   -1.5071   -0.4074    1.8463 H   0  0  0  0  0  0  0  0  0  0  0  0
   -1.1134    0.9486    0.7307 H   0  0  0  0  0  0  0  0  0  0  0  0
   -0.7207   -0.6328   -1.0121 H   0  0  0  0  0  0  0  0  0  0  0  0
   -4.0469    0.9277   -1.6622 H   0  0  0  0  0  0  0  0  0  0  0  0
   -2.5031    1.4787   -1.2553 H   0  0  0  0  0  0  0  0  0  0  0  0
  1  2  1  0
  2  3  2  0
  2  4  1  0
  4  5  1  0
  5  6  1  0
  6  7  1  0
  7  8  1  0
  8  9  1  0
  8 10  2  0
  8 11  2  0
  1 12  1  0
  1 13  1  0
  4 14  1  0
  4 15  1  0
  5 16  1  0
  5 17  1  0
  6 18  1  0
  6 19  1  0
  7 20  1  0
  9 21  1  0
  9 22  1  0
M  END
$$$$

     RDKit          3D

 22 21  0  0  0  0  0  0  0  0999 V2000
   -3.7742   -0.7946    0.8628 N   0  0  0  0  0  0  0  0  0  0  0  0
   -2.5675   -0.1806    0.4290 C   0  0  0  0  0  0  0  0  0  0  0  0
   -2.1808    0.8121    1.0942 O   0  0  0  0  0  0  0  0  0  0  0  0
   -1.8098   -0.6813   -0.7394 C   0  0  0  0  0  0  0  0  0  0  0  0
   -0.5662    0.0876   -1.0146 C   0  0  0  0  0  0  0  0  0  0  0  0
    0.4438    0.1042    0.0741 C   0  0  0  0  0  0  0  0  0  0  0  0
    1.5778    0.9109   -0.4064 N   0  0  0  0  0  0  0  0  0  0  0  0
    2.7383    0.9185    0.8693 S   0  0  0  0  0  6  0  0  0  0  0  0
    3.8322   -0.4069    0.7055 N   0  0  0  0  0  0  0  0  0  0  0  0
    3.5067    2.1924    0.9349 O   0  0  0  0  0  0  0  0  0  0  0  0
    2.0132    0.7619    2.1973 O   0  0  0  0  0  0  0  0  0  0  0  0
   -3.7019   -1.8099    1.1448 H   0  0  0  0  0  0  0  0  0  0  0  0
   -4.6469   -0.2486    0.8866 H   0  0  0  0  0  0  0  0  0  0  0  0
   -1.6391   -1.7745   -0.6245 H   0  0  0  0  0  0  0  0  0  0  0  0
   -2.4765   -0.5738   -1.6216 H   0  0  0  0  0  0  0  0  0  0  0  0
   -0.8507    1.1351   -1.2362 H   0  0  0  0  0  0  0  0  0  0  0  0
   -0.0855   -0.3618   -1.9137 H   0  0  0  0  0  0  0  0  0  0  0  0
    0.1259    0.5039    1.0357 H   0  0  0  0  0  0  0  0  0  0  0  0
    0.8885   -0.9049    0.2794 H   0  0  0  0  0  0  0  0  0  0  0  0
    1.2140    1.8585   -0.6323 H   0  0  0  0  0  0  0  0  0  0  0  0
    3.3367   -1.2793    0.9948 H   0  0  0  0  0  0  0  0  0  0  0  0
    4.6220   -0.2691    1.3793 H   0  0  0  0  0  0  0  0  0  0  0  0
  1  2  1  0
  2  3  2  0
  2  4  1  0
  4  5  1  0
  5  6  1  0
  6  7  1  0
  7  8  1  0
  8  9  1  0
  8 10  2  0
  8 11  2  0
  1 12  1  0
  1 13  1  0
  4 14  1  0
  4 15  1  0
  5 16  1  0
  5 17  1  0
  6 18  1  0
  6 19  1  0
  7 20  1  0
  9 21  1  0
  9 22  1  0
M  END
$$$$

     RDKit          3D

 22 21  0  0  0  0  0  0  0  0999 V2000
    4.0841    1.2773    0.0430 N   0  0  0  0  0  0  0  0  0  0  0  0
    3.0420    0.3961   -0.3928 C   0  0  0  0  0  0  0  0  0  0  0  0
    3.2395   -0.4895   -1.2553 O   0  0  0  0  0  0  0  0  0  0  0  0
    1.6938    0.5533    0.2081 C   0  0  0  0  0  0  0  0  0  0  0  0
    0.7488   -0.4686   -0.3875 C   0  0  0  0  0  0  0  0  0  0  0  0
   -0.5991   -0.2549    0.2640 C   0  0  0  0  0  0  0  0  0  0  0  0
   -1.5863   -1.2127   -0.2591 N   0  0  0  0  0  0  0  0  0  0  0  0
   -3.0681   -0.8625    0.5605 S   0  0  0  0  0  6  0  0  0  0  0  0
   -4.0158    0.2963   -0.2760 N   0  0  0  0  0  0  0  0  0  0  0  0
   -2.7433   -0.2818    1.9271 O   0  0  0  0  0  0  0  0  0  0  0  0
   -3.8724   -2.1046    0.7845 O   0  0  0  0  0  0  0  0  0  0  0  0
    5.0402    0.8863    0.1719 H   0  0  0  0  0  0  0  0  0  0  0  0
    3.9334    2.2746    0.2340 H   0  0  0  0  0  0  0  0  0  0  0  0
    1.2738    1.5571    0.0556 H   0  0  0  0  0  0  0  0  0  0  0  0
    1.7447    0.3988    1.3210 H   0  0  0  0  0  0  0  0  0  0  0  0
    1.1143   -1.4930   -0.2724 H   0  0  0  0  0  0  0  0  0  0  0  0
    0.6231   -0.1793   -1.4644 H   0  0  0  0  0  0  0  0  0  0  0  0
   -1.0149    0.7420    0.0434 H   0  0  0  0  0  0  0  0  0  0  0  0
   -0.5599   -0.4016    1.3478 H   0  0  0  0  0  0  0  0  0  0  0  0
   -1.2887   -2.1726    0.0827 H   0  0  0  0  0  0  0  0  0  0  0  0
   -3.8994    0.2711   -1.3044 H   0  0  0  0  0  0  0  0  0  0  0  0
   -3.8900    1.2683    0.0679 H   0  0  0  0  0  0  0  0  0  0  0  0
  1  2  1  0
  2  3  2  0
  2  4  1  0
  4  5  1  0
  5  6  1  0
  6  7  1  0
  7  8  1  0
  8  9  1  0
  8 10  2  0
  8 11  2  0
  1 12  1  0
  1 13  1  0
  4 14  1  0
  4 15  1  0
  5 16  1  0
  5 17  1  0
  6 18  1  0
  6 19  1  0
  7 20  1  0
  9 21  1  0
  9 22  1  0
M  END
$$$$
