
     RDKit          3D

 16 17  0  0  0  0  0  0  0  0999 V2000
    3.5075    0.9491   -0.3705 O   0  0  0  0  0  0  0  0  0  0  0  0
    2.3149    0.5562   -0.2382 C   0  0  0  0  0  0  0  0  0  0  0  0
    1.2576    1.3752   -0.2264 N   0  0  0  0  0  0  0  0  0  0  0  0
   -0.0038    0.8904   -0.0802 C   0  0  0  0  0  0  0  0  0  0  0  0
   -1.0480    1.7926   -0.0770 C   0  0  0  0  0  0  0  0  0  0  0  0
   -2.2853    1.2866    0.0692 N   0  0  0  0  0  0  0  0  0  0  0  0
   -2.4963   -0.0320    0.2055 C   0  0  0  0  0  0  0  0  0  0  0  0
   -1.4653   -0.9289    0.2029 C   0  0  0  0  0  0  0  0  0  0  0  0
   -0.2128   -0.4374    0.0568 N   0  0  0  0  0  0  0  0  0  0  0  0
    0.8462   -1.2565    0.0449 C   0  0  0  0  0  0  0  0  0  0  0  0
    0.6276   -2.4915    0.1742 O   0  0  0  0  0  0  0  0  0  0  0  0
    2.0972   -0.7700   -0.1006 N   0  0  0  0  0  0  0  0  0  0  0  0
   -0.8809    2.8553   -0.1866 H   0  0  0  0  0  0  0  0  0  0  0  0
   -3.5210   -0.3759    0.3198 H   0  0  0  0  0  0  0  0  0  0  0  0
   -1.6618   -1.9944    0.3151 H   0  0  0  0  0  0  0  0  0  0  0  0
    2.9242   -1.4187   -0.1091 H   0  0  0  0  0  0  0  0  0  0  0  0
  1  2  2  0
  2  3  1  0
  3  4  2  0
  4  5  1  0
  5  6  2  0
  6  7  1  0
  7  8  2  0
  8  9  1  0
  9 10  1  0
 10 11  2  0
 10 12  1  0
 12  2  1  0
  9  4  1  0
  5 13  1  0
  7 14  1  0
  8 15  1  0
 12 16  1  0
M  END
$$$$

     RDKit          3D

 16 17  0  0  0  0  0  0  0  0999 V2000
   -3.3912   -1.4024    0.1897 O   0  0  0  0  0  0  0  0  0  0  0  0
   -2.2668   -0.8176    0.1168 C   0  0  0  0  0  0  0  0  0  0  0  0
   -1.1054   -1.4984    0.1491 N   0  0  0  0  0  0  0  0  0  0  0  0
    0.1001   -0.9060    0.0738 C   0  0  0  0  0  0  0  0  0  0  0  0
    1.2883   -1.6030    0.1069 C   0  0  0  0  0  0  0  0  0  0  0  0
    2.4902   -0.9958    0.0304 N   0  0  0  0  0  0  0  0  0  0  0  0
    2.5406    0.3427   -0.0828 C   0  0  0  0  0  0  0  0  0  0  0  0
    1.3708    1.0622   -0.1182 C   0  0  0  0  0  0  0  0  0  0  0  0
    0.1587    0.4383   -0.0401 N   0  0  0  0  0  0  0  0  0  0  0  0
   -0.9911    1.1361   -0.0741 C   0  0  0  0  0  0  0  0  0  0  0  0
   -0.9866    2.3927   -0.1794 O   0  0  0  0  0  0  0  0  0  0  0  0
   -2.1955    0.5225    0.0030 N   0  0  0  0  0  0  0  0  0  0  0  0
    1.2306   -2.6953    0.1996 H   0  0  0  0  0  0  0  0  0  0  0  0
    3.4872    0.8623   -0.1465 H   0  0  0  0  0  0  0  0  0  0  0  0
    1.3618    2.1232   -0.2069 H   0  0  0  0  0  0  0  0  0  0  0  0
   -3.0918    1.0382   -0.0211 H   0  0  0  0  0  0  0  0  0  0  0  0
  1  2  2  0
  2  3  1  0
  3  4  2  0
  4  5  1  0
  5  6  2  0
  6  7  1  0
  7  8  2  0
  8  9  1  0
  9 10  1  0
 10 11  2  0
 10 12  1  0
 12  2  1  0
  9  4  1  0
  5 13  1  0
  7 14  1  0
  8 15  1  0
 12 16  1  0
M  END
$$$$

     RDKit          3D

 16 17  0  0  0  0  0  0  0  0999 V2000
    3.1562    1.8062    0.4505 O   0  0  0  0  0  0  0  0  0  0  0  0
    2.1558    1.0588    0.2715 C   0  0  0  0  0  0  0  0  0  0  0  0
    0.9141    1.6045    0.3545 N   0  0  0  0  0  0  0  0  0  0  0  0
   -0.2014    0.8772    0.1769 C   0  0  0  0  0  0  0  0  0  0  0  0
   -1.4681    1.4093    0.2565 C   0  0  0  0  0  0  0  0  0  0  0  0
   -2.5763    0.6714    0.0768 N   0  0  0  0  0  0  0  0  0  0  0  0
   -2.4858   -0.6588   -0.1966 C   0  0  0  0  0  0  0  0  0  0  0  0
   -1.2068   -1.1722   -0.2720 C   0  0  0  0  0  0  0  0  0  0  0  0
   -0.0944   -0.4369   -0.0928 N   0  0  0  0  0  0  0  0  0  0  0  0
    1.1462   -0.9703   -0.1733 C   0  0  0  0  0  0  0  0  0  0  0  0
    1.2056   -2.2069   -0.4280 O   0  0  0  0  0  0  0  0  0  0  0  0
    2.2614   -0.2507    0.0028 N   0  0  0  0  0  0  0  0  0  0  0  0
   -1.5700    2.4609    0.4718 H   0  0  0  0  0  0  0  0  0  0  0  0
   -3.3685   -1.2677   -0.3441 H   0  0  0  0  0  0  0  0  0  0  0  0
   -1.0747   -2.2309   -0.4882 H   0  0  0  0  0  0  0  0  0  0  0  0
    3.2067   -0.6939   -0.0662 H   0  0  0  0  0  0  0  0  0  0  0  0
  1  2  2  0
  2  3  1  0
  3  4  2  0
  4  5  1  0
  5  6  2  0
  6  7  1  0
  7  8  2  0
  8  9  1  0
  9 10  1  0
 10 11  2  0
 10 12  1  0
 12  2  1  0
  9  4  1  0
  5 13  1  0
  7 14  1  0
  8 15  1  0
 12 16  1  0
M  END
$$$$

     RDKit          3D

 16 17  0  0  0  0  0  0  0  0999 V2000
    3.2618    1.5513    0.0613 O   0  0  0  0  0  0  0  0  0  0  0  0
    2.1668    0.9064    0.0295 C   0  0  0  0  0  0  0  0  0  0  0  0
    1.0150    1.5743    0.1179 N   0  0  0  0  0  0  0  0  0  0  0  0
   -0.1422    0.8967    0.0847 C   0  0  0  0  0  0  0  0  0  0  0  0
   -1.3753    1.5511    0.1739 C   0  0  0  0  0  0  0  0  0  0  0  0
   -2.5329    0.8677    0.1401 N   0  0  0  0  0  0  0  0  0  0  0  0
   -2.5162   -0.4639    0.0191 C   0  0  0  0  0  0  0  0  0  0  0  0
   -1.2933   -1.0891   -0.0672 C   0  0  0  0  0  0  0  0  0  0  0  0
   -0.1177   -0.4317   -0.0362 N   0  0  0  0  0  0  0  0  0  0  0  0
    1.0672   -1.0938   -0.1250 C   0  0  0  0  0  0  0  0  0  0  0  0
    1.0708   -2.3297   -0.2370 O   0  0  0  0  0  0  0  0  0  0  0  0
    2.2401   -0.4325   -0.0935 N   0  0  0  0  0  0  0  0  0  0  0  0
   -1.3477    2.6375    0.2716 H   0  0  0  0  0  0  0  0  0  0  0  0
   -3.4356   -1.0679   -0.0133 H   0  0  0  0  0  0  0  0  0  0  0  0
   -1.2325   -2.1729   -0.1669 H   0  0  0  0  0  0  0  0  0  0  0  0
    3.1717   -0.9035   -0.1588 H   0  0  0  0  0  0  0  0  0  0  0  0
  1  2  2  0
  2  3  1  0
  3  4  2  0
  4  5  1  0
  5  6  2  0
  6  7  1  0
  7  8  2  0
  8  9  1  0
  9 10  1  0
 10 11  2  0
 10 12  1  0
 12  2  1  0
  9  4  1  0
  5 13  1  0
  7 14  1  0
  8 15  1  0
 12 16  1  0
M  END
$$$$

     RDKit          3D

 16 17  0  0  0  0  0  0  0  0999 V2000
   -3.5308   -0.7739   -0.3379 O   0  0  0  0  0  0  0  0  0  0  0  0
   -2.3353   -0.4226   -0.1638 C   0  0  0  0  0  0  0  0  0  0  0  0
   -1.3271   -1.3134   -0.1664 N   0  0  0  0  0  0  0  0  0  0  0  0
   -0.0594   -0.9428    0.0180 C   0  0  0  0  0  0  0  0  0  0  0  0
    1.0163   -1.7960    0.0274 C   0  0  0  0  0  0  0  0  0  0  0  0
    2.2795   -1.3731    0.2180 N   0  0  0  0  0  0  0  0  0  0  0  0
    2.5228   -0.0710    0.4084 C   0  0  0  0  0  0  0  0  0  0  0  0
    1.4708    0.8171    0.4059 C   0  0  0  0  0  0  0  0  0  0  0  0
    0.2091    0.3711    0.2127 N   0  0  0  0  0  0  0  0  0  0  0  0
   -0.8128    1.2459    0.2118 C   0  0  0  0  0  0  0  0  0  0  0  0
   -0.5487    2.4649    0.3940 O   0  0  0  0  0  0  0  0  0  0  0  0
   -2.0975    0.8835    0.0266 N   0  0  0  0  0  0  0  0  0  0  0  0
    0.8327   -2.8462   -0.1248 H   0  0  0  0  0  0  0  0  0  0  0  0
    3.5503    0.2773    0.5639 H   0  0  0  0  0  0  0  0  0  0  0  0
    1.6847    1.8667    0.5613 H   0  0  0  0  0  0  0  0  0  0  0  0
   -2.8548    1.6124    0.0361 H   0  0  0  0  0  0  0  0  0  0  0  0
  1  2  2  0
  2  3  1  0
  3  4  2  0
  4  5  1  0
  5  6  2  0
  6  7  1  0
  7  8  2  0
  8  9  1  0
  9 10  1  0
 10 11  2  0
 10 12  1  0
 12  2  1  0
  9  4  1  0
  5 13  1  0
  7 14  1  0
  8 15  1  0
 12 16  1  0
M  END
$$$$

     RDKit          3D

 16 17  0  0  0  0  0  0  0  0999 V2000
    3.4129    1.1674   -0.4940 O   0  0  0  0  0  0  0  0  0  0  0  0
    2.2599    0.7081   -0.3052 C   0  0  0  0  0  0  0  0  0  0  0  0
    1.1338    1.4357   -0.5184 N   0  0  0  0  0  0  0  0  0  0  0  0
   -0.0776    0.8829   -0.2962 C   0  0  0  0  0  0  0  0  0  0  0  0
   -1.2482    1.6217   -0.5120 C   0  0  0  0  0  0  0  0  0  0  0  0
   -2.3969    1.0047   -0.2700 N   0  0  0  0  0  0  0  0  0  0  0  0
   -2.5035   -0.2622    0.1615 C   0  0  0  0  0  0  0  0  0  0  0  0
   -1.3441   -0.9782    0.3698 C   0  0  0  0  0  0  0  0  0  0  0  0
   -0.1573   -0.3922    0.1372 N   0  0  0  0  0  0  0  0  0  0  0  0
    0.9596   -1.1364    0.3563 C   0  0  0  0  0  0  0  0  0  0  0  0
    0.8339   -2.3195    0.7600 O   0  0  0  0  0  0  0  0  0  0  0  0
    2.1536   -0.5606    0.1269 N   0  0  0  0  0  0  0  0  0  0  0  0
   -1.1542    2.6450   -0.8607 H   0  0  0  0  0  0  0  0  0  0  0  0
   -3.4920   -0.7052    0.3400 H   0  0  0  0  0  0  0  0  0  0  0  0
   -1.4042   -1.9994    0.7169 H   0  0  0  0  0  0  0  0  0  0  0  0
    3.0244   -1.1119    0.2880 H   0  0  0  0  0  0  0  0  0  0  0  0
  1  2  2  0
  2  3  1  0
  3  4  2  0
  4  5  1  0
  5  6  2  0
  6  7  1  0
  7  8  2  0
  8  9  1  0
  9 10  1  0
 10 11  2  0
 10 12  1  0
 12  2  1  0
  9  4  1  0
  5 13  1  0
  7 14  1  0
  8 15  1  0
 12 16  1  0
M  END
$$$$

     RDKit          3D

 16 17  0  0  0  0  0  0  0  0999 V2000
    1.6969   -3.1891    0.6979 O   0  0  0  0  0  0  0  0  0  0  0  0
    1.1598   -2.0913    0.3819 C   0  0  0  0  0  0  0  0  0  0  0  0
    0.2575   -1.4719    1.1666 N   0  0  0  0  0  0  0  0  0  0  0  0
   -0.3008   -0.3001    0.8055 C   0  0  0  0  0  0  0  0  0  0  0  0
   -1.2254    0.3350    1.6092 C   0  0  0  0  0  0  0  0  0  0  0  0
   -1.7753    1.5005    1.2412 N   0  0  0  0  0  0  0  0  0  0  0  0
   -1.4649    2.1133    0.0845 C   0  0  0  0  0  0  0  0  0  0  0  0
   -0.5398    1.4765   -0.7181 C   0  0  0  0  0  0  0  0  0  0  0  0
    0.0202    0.3010   -0.3556 N   0  0  0  0  0  0  0  0  0  0  0  0
    0.9242   -0.3229   -1.1380 C   0  0  0  0  0  0  0  0  0  0  0  0
    1.2108    0.2605   -2.2249 O   0  0  0  0  0  0  0  0  0  0  0  0
    1.4825   -1.4922   -0.7796 N   0  0  0  0  0  0  0  0  0  0  0  0
   -1.4748   -0.1644    2.5459 H   0  0  0  0  0  0  0  0  0  0  0  0
   -1.8999    3.0561   -0.2288 H   0  0  0  0  0  0  0  0  0  0  0  0
   -0.2597    1.9323   -1.6574 H   0  0  0  0  0  0  0  0  0  0  0  0
    2.1888   -1.9431   -1.4303 H   0  0  0  0  0  0  0  0  0  0  0  0
  1  2  2  0
  2  3  1  0
  3  4  2  0
  4  5  1  0
  5  6  2  0
  6  7  1  0
  7  8  2  0
  8  9  1  0
  9 10  1  0
 10 11  2  0
 10 12  1  0
 12  2  1  0
  9  4  1  0
  5 13  1  0
  7 14  1  0
  8 15  1  0
 12 16  1  0
M  END
$$$$

     RDKit          3D

 16 17  0  0  0  0  0  0  0  0999 V2000
    3.3227   -1.5038    0.2903 O   0  0  0  0  0  0  0  0  0  0  0  0
    2.2169   -0.9308    0.1943 C   0  0  0  0  0  0  0  0  0  0  0  0
    1.0412   -1.5930    0.0813 N   0  0  0  0  0  0  0  0  0  0  0  0
   -0.1157   -0.9074   -0.0184 C   0  0  0  0  0  0  0  0  0  0  0  0
   -1.3197   -1.5802   -0.1341 C   0  0  0  0  0  0  0  0  0  0  0  0
   -2.4691   -0.8901   -0.2331 N   0  0  0  0  0  0  0  0  0  0  0  0
   -2.4985    0.4596   -0.2241 C   0  0  0  0  0  0  0  0  0  0  0  0
   -1.3025    1.1392   -0.1090 C   0  0  0  0  0  0  0  0  0  0  0  0
   -0.1598    0.4377   -0.0108 N   0  0  0  0  0  0  0  0  0  0  0  0
    1.0327    1.0792    0.1036 C   0  0  0  0  0  0  0  0  0  0  0  0
    0.9799    2.3397    0.1097 O   0  0  0  0  0  0  0  0  0  0  0  0
    2.1929    0.4028    0.2036 N   0  0  0  0  0  0  0  0  0  0  0  0
   -1.2771   -2.6601   -0.1396 H   0  0  0  0  0  0  0  0  0  0  0  0
   -3.4474    1.0058   -0.3060 H   0  0  0  0  0  0  0  0  0  0  0  0
   -1.2643    2.2252   -0.0961 H   0  0  0  0  0  0  0  0  0  0  0  0
    3.0679    0.9761    0.2885 H   0  0  0  0  0  0  0  0  0  0  0  0
  1  2  2  0
  2  3  1  0
  3  4  2  0
  4  5  1  0
  5  6  2  0
  6  7  1  0
  7  8  2  0
  8  9  1  0
  9 10  1  0
 10 11  2  0
 10 12  1  0
 12  2  1  0
  9  4  1  0
  5 13  1  0
  7 14  1  0
  8 15  1  0
 12 16  1  0
M  END
$$$$
