
     RDKit          3D

 26 25  0  0  0  0  0  0  0  0999 V2000
   -1.3631   -0.4798    1.1902 C   0  0  0  0  0  0  0  0  0  0  0  0
   -0.9812   -0.1517   -0.2669 C   0  0  2  0  0  0  0  0  0  0  0  0
    0.4329    0.3031   -0.3459 C   0  0  0  0  0  0  0  0  0  0  0  0
    1.4858   -0.6190    0.1293 C   0  0  1  0  0  0  0  0  0  0  0  0
    1.5672   -1.8303   -0.5179 O   0  0  0  0  0  0  0  0  0  0  0  0
    2.8237    0.1096   -0.0952 C   0  0  0  0  0  0  0  0  0  0  0  0
    2.8082    1.3503    0.5377 O   0  0  0  0  0  0  0  0  0  0  0  0
   -1.8251    1.0337   -0.6098 C   0  0  0  0  0  0  0  0  0  0  0  0
   -1.6741    2.2037    0.1623 N   0  0  0  0  0  0  0  0  0  0  0  0
   -2.6235    0.9834   -1.5367 O   0  0  0  0  0  0  0  0  0  0  0  0
   -1.3923   -1.2420   -1.1251 C   0  0  0  0  0  0  0  0  0  0  0  0
   -0.6062   -1.8380   -1.8773 O   0  0  0  0  0  0  0  0  0  0  0  0
   -2.7165   -1.6391   -1.1106 O   0  0  0  0  0  0  0  0  0  0  0  0
   -0.9778    0.2987    1.8519 H   0  0  0  0  0  0  0  0  0  0  0  0
   -1.0181   -1.5064    1.4576 H   0  0  0  0  0  0  0  0  0  0  0  0
   -2.4710   -0.4963    1.2547 H   0  0  0  0  0  0  0  0  0  0  0  0
    0.5220    1.2424    0.2746 H   0  0  0  0  0  0  0  0  0  0  0  0
    0.6993    0.6255   -1.3803 H   0  0  0  0  0  0  0  0  0  0  0  0
    1.4507   -0.7787    1.2419 H   0  0  0  0  0  0  0  0  0  0  0  0
    2.1265   -1.7203   -1.3291 H   0  0  0  0  0  0  0  0  0  0  0  0
    3.6582   -0.5300    0.2324 H   0  0  0  0  0  0  0  0  0  0  0  0
    2.9225    0.3187   -1.1944 H   0  0  0  0  0  0  0  0  0  0  0  0
    3.5645    1.3514    1.1775 H   0  0  0  0  0  0  0  0  0  0  0  0
   -0.9794    2.9406   -0.0771 H   0  0  0  0  0  0  0  0  0  0  0  0
   -2.2917    2.3143    0.9996 H   0  0  0  0  0  0  0  0  0  0  0  0
   -3.1413   -2.2438   -1.7808 H   0  0  0  0  0  0  0  0  0  0  0  0
  2  1  1  1
  2  3  1  0
  3  4  1  0
  4  5  1  0
  4  6  1  0
  6  7  1  0
  2  8  1  0
  8  9  1  0
  8 10  2  0
  2 11  1  0
 11 12  2  0
 11 13  1  0
  1 14  1  0
  1 15  1  0
  1 16  1  0
  3 17  1  0
  3 18  1  0
  4 19  1  1
  5 20  1  0
  6 21  1  0
  6 22  1  0
  7 23  1  0
  9 24  1  0
  9 25  1  0
 13 26  1  0
M  END
$$$$

     RDKit          3D

 26 25  0  0  0  0  0  0  0  0999 V2000
   -1.0197   -1.8499    0.3567 C   0  0  0  0  0  0  0  0  0  0  0  0
   -1.0290   -0.3816    0.1031 C   0  0  2  0  0  0  0  0  0  0  0  0
    0.2999    0.2346    0.4462 C   0  0  0  0  0  0  0  0  0  0  0  0
    1.4327   -0.3464   -0.3621 C   0  0  1  0  0  0  0  0  0  0  0  0
    1.2529   -0.1592   -1.7180 O   0  0  0  0  0  0  0  0  0  0  0  0
    2.7265    0.3028    0.0541 C   0  0  0  0  0  0  0  0  0  0  0  0
    2.9765    0.1546    1.4148 O   0  0  0  0  0  0  0  0  0  0  0  0
   -2.0339    0.2382    1.0382 C   0  0  0  0  0  0  0  0  0  0  0  0
   -2.2136    1.6479    0.9721 N   0  0  0  0  0  0  0  0  0  0  0  0
   -2.6911   -0.4393    1.8443 O   0  0  0  0  0  0  0  0  0  0  0  0
   -1.4763   -0.0991   -1.2555 C   0  0  0  0  0  0  0  0  0  0  0  0
   -1.7818   -1.0565   -2.0068 O   0  0  0  0  0  0  0  0  0  0  0  0
   -1.5933    1.1793   -1.7959 O   0  0  0  0  0  0  0  0  0  0  0  0
   -2.0438   -2.1721    0.6688 H   0  0  0  0  0  0  0  0  0  0  0  0
   -0.2427   -2.1582    1.0980 H   0  0  0  0  0  0  0  0  0  0  0  0
   -0.7476   -2.3971   -0.5879 H   0  0  0  0  0  0  0  0  0  0  0  0
    0.4914    0.0118    1.5186 H   0  0  0  0  0  0  0  0  0  0  0  0
    0.2843    1.3194    0.3289 H   0  0  0  0  0  0  0  0  0  0  0  0
    1.5370   -1.4367   -0.1728 H   0  0  0  0  0  0  0  0  0  0  0  0
    2.0605   -0.4846   -2.1867 H   0  0  0  0  0  0  0  0  0  0  0  0
    3.5986   -0.0734   -0.4833 H   0  0  0  0  0  0  0  0  0  0  0  0
    2.6872    1.4096   -0.1547 H   0  0  0  0  0  0  0  0  0  0  0  0
    3.5066    0.9158    1.7127 H   0  0  0  0  0  0  0  0  0  0  0  0
   -1.9599    2.2017    1.8176 H   0  0  0  0  0  0  0  0  0  0  0  0
   -2.5762    2.1442    0.1445 H   0  0  0  0  0  0  0  0  0  0  0  0
   -1.4452    1.2942   -2.7948 H   0  0  0  0  0  0  0  0  0  0  0  0
  2  1  1  6
  2  3  1  0
  3  4  1  0
  4  5  1  0
  4  6  1  0
  6  7  1  0
  2  8  1  0
  8  9  1  0
  8 10  2  0
  2 11  1  0
 11 12  2  0
 11 13  1  0
  1 14  1  0
  1 15  1  0
  1 16  1  0
  3 17  1  0
  3 18  1  0
  4 19  1  6
  5 20  1  0
  6 21  1  0
  6 22  1  0
  7 23  1  0
  9 24  1  0
  9 25  1  0
 13 26  1  0
M  END
$$$$

     RDKit          3D

 26 25  0  0  0  0  0  0  0  0999 V2000
   -1.9427    1.1291   -0.7293 C   0  0  0  0  0  0  0  0  0  0  0  0
   -0.9952    0.3914    0.1978 C   0  0  2  0  0  0  0  0  0  0  0  0
    0.3088    0.2218   -0.5481 C   0  0  0  0  0  0  0  0  0  0  0  0
    1.3424   -0.5101    0.2896 C   0  0  1  0  0  0  0  0  0  0  0  0
    0.8269   -1.7500    0.5959 O   0  0  0  0  0  0  0  0  0  0  0  0
    2.5978   -0.5971   -0.5652 C   0  0  0  0  0  0  0  0  0  0  0  0
    3.0134    0.7178   -0.8010 O   0  0  0  0  0  0  0  0  0  0  0  0
   -1.6108   -0.9110    0.5396 C   0  0  0  0  0  0  0  0  0  0  0  0
   -1.9288   -1.8638   -0.4660 N   0  0  0  0  0  0  0  0  0  0  0  0
   -1.8756   -1.2244    1.7288 O   0  0  0  0  0  0  0  0  0  0  0  0
   -0.8049    1.2384    1.3989 C   0  0  0  0  0  0  0  0  0  0  0  0
   -1.1364    0.7639    2.5126 O   0  0  0  0  0  0  0  0  0  0  0  0
   -0.2834    2.4979    1.2900 O   0  0  0  0  0  0  0  0  0  0  0  0
   -2.1050    0.5779   -1.6811 H   0  0  0  0  0  0  0  0  0  0  0  0
   -2.8817    1.3735   -0.2010 H   0  0  0  0  0  0  0  0  0  0  0  0
   -1.4182    2.0915   -1.0010 H   0  0  0  0  0  0  0  0  0  0  0  0
    0.6892    1.2003   -0.8910 H   0  0  0  0  0  0  0  0  0  0  0  0
    0.1564   -0.3909   -1.4560 H   0  0  0  0  0  0  0  0  0  0  0  0
    1.5985    0.0721    1.2107 H   0  0  0  0  0  0  0  0  0  0  0  0
    1.0284   -2.4545   -0.0516 H   0  0  0  0  0  0  0  0  0  0  0  0
    2.3275   -1.0168   -1.5588 H   0  0  0  0  0  0  0  0  0  0  0  0
    3.4056   -1.1390   -0.0581 H   0  0  0  0  0  0  0  0  0  0  0  0
    3.7563    0.9747   -0.1869 H   0  0  0  0  0  0  0  0  0  0  0  0
   -1.3152   -1.9855   -1.2904 H   0  0  0  0  0  0  0  0  0  0  0  0
   -2.7962   -2.4405   -0.3570 H   0  0  0  0  0  0  0  0  0  0  0  0
    0.0430    3.0329    2.0933 H   0  0  0  0  0  0  0  0  0  0  0  0
  2  1  1  6
  2  3  1  0
  3  4  1  0
  4  5  1  0
  4  6  1  0
  6  7  1  0
  2  8  1  0
  8  9  1  0
  8 10  2  0
  2 11  1  0
 11 12  2  0
 11 13  1  0
  1 14  1  0
  1 15  1  0
  1 16  1  0
  3 17  1  0
  3 18  1  0
  4 19  1  1
  5 20  1  0
  6 21  1  0
  6 22  1  0
  7 23  1  0
  9 24  1  0
  9 25  1  0
 13 26  1  0
M  END
$$$$

     RDKit          3D

 26 25  0  0  0  0  0  0  0  0999 V2000
   -0.7883    1.4700   -0.8239 C   0  0  0  0  0  0  0  0  0  0  0  0
   -0.8021    0.2567    0.0960 C   0  0  2  0  0  0  0  0  0  0  0  0
    0.5876   -0.2349    0.3717 C   0  0  0  0  0  0  0  0  0  0  0  0
    1.3616   -0.6532   -0.8135 C   0  0  1  0  0  0  0  0  0  0  0  0
    1.5530    0.3492   -1.7547 O   0  0  0  0  0  0  0  0  0  0  0  0
    2.7640   -1.0422   -0.3266 C   0  0  0  0  0  0  0  0  0  0  0  0
    3.4101    0.0526    0.2445 O   0  0  0  0  0  0  0  0  0  0  0  0
   -1.6716   -0.7481   -0.5309 C   0  0  0  0  0  0  0  0  0  0  0  0
   -3.0274   -0.3989   -0.7692 N   0  0  0  0  0  0  0  0  0  0  0  0
   -1.2990   -1.8955   -0.8711 O   0  0  0  0  0  0  0  0  0  0  0  0
   -1.4072    0.6134    1.3981 C   0  0  0  0  0  0  0  0  0  0  0  0
   -1.8208    1.7651    1.6263 O   0  0  0  0  0  0  0  0  0  0  0  0
   -1.5067   -0.3611    2.3651 O   0  0  0  0  0  0  0  0  0  0  0  0
   -0.0332    2.2131   -0.5284 H   0  0  0  0  0  0  0  0  0  0  0  0
   -1.8227    1.8893   -0.7803 H   0  0  0  0  0  0  0  0  0  0  0  0
   -0.6641    1.0831   -1.8531 H   0  0  0  0  0  0  0  0  0  0  0  0
    0.5444   -1.0467    1.0973 H   0  0  0  0  0  0  0  0  0  0  0  0
    1.1327    0.6087    0.8679 H   0  0  0  0  0  0  0  0  0  0  0  0
    0.9622   -1.5401   -1.3188 H   0  0  0  0  0  0  0  0  0  0  0  0
    1.9608    1.1288   -1.3088 H   0  0  0  0  0  0  0  0  0  0  0  0
    3.3526   -1.5178   -1.1342 H   0  0  0  0  0  0  0  0  0  0  0  0
    2.6908   -1.8093    0.4942 H   0  0  0  0  0  0  0  0  0  0  0  0
    3.7547    0.6288   -0.4696 H   0  0  0  0  0  0  0  0  0  0  0  0
   -3.6699   -0.1691    0.0267 H   0  0  0  0  0  0  0  0  0  0  0  0
   -3.4529   -0.3514   -1.7209 H   0  0  0  0  0  0  0  0  0  0  0  0
   -2.1087   -0.2905    3.1753 H   0  0  0  0  0  0  0  0  0  0  0  0
  2  1  1  6
  2  3  1  0
  3  4  1  0
  4  5  1  0
  4  6  1  0
  6  7  1  0
  2  8  1  0
  8  9  1  0
  8 10  2  0
  2 11  1  0
 11 12  2  0
 11 13  1  0
  1 14  1  0
  1 15  1  0
  1 16  1  0
  3 17  1  0
  3 18  1  0
  4 19  1  6
  5 20  1  0
  6 21  1  0
  6 22  1  0
  7 23  1  0
  9 24  1  0
  9 25  1  0
 13 26  1  0
M  END
$$$$

     RDKit          3D

 26 25  0  0  0  0  0  0  0  0999 V2000
   -0.7960   -1.1546    1.4612 C   0  0  0  0  0  0  0  0  0  0  0  0
   -0.9527   -0.3021    0.2387 C   0  0  2  0  0  0  0  0  0  0  0  0
    0.2842   -0.2944   -0.6277 C   0  0  0  0  0  0  0  0  0  0  0  0
    1.4235    0.2531    0.1962 C   0  0  1  0  0  0  0  0  0  0  0  0
    1.6211   -0.5519    1.2968 O   0  0  0  0  0  0  0  0  0  0  0  0
    2.6837    0.4230   -0.6213 C   0  0  0  0  0  0  0  0  0  0  0  0
    3.1875   -0.7594   -1.1074 O   0  0  0  0  0  0  0  0  0  0  0  0
   -1.2486    1.1100    0.5621 C   0  0  0  0  0  0  0  0  0  0  0  0
   -1.4200    2.0225   -0.5009 N   0  0  0  0  0  0  0  0  0  0  0  0
   -1.3451    1.4892    1.7321 O   0  0  0  0  0  0  0  0  0  0  0  0
   -2.1414   -0.8038   -0.5166 C   0  0  0  0  0  0  0  0  0  0  0  0
   -2.1024   -1.2352   -1.6866 O   0  0  0  0  0  0  0  0  0  0  0  0
   -3.3530   -0.7764    0.1509 O   0  0  0  0  0  0  0  0  0  0  0  0
   -1.8088   -1.5812    1.7122 H   0  0  0  0  0  0  0  0  0  0  0  0
   -0.4379   -0.6053    2.3566 H   0  0  0  0  0  0  0  0  0  0  0  0
   -0.1718   -2.0259    1.1877 H   0  0  0  0  0  0  0  0  0  0  0  0
    0.5209   -1.3100   -0.9951 H   0  0  0  0  0  0  0  0  0  0  0  0
    0.0660    0.3421   -1.5144 H   0  0  0  0  0  0  0  0  0  0  0  0
    1.1499    1.2807    0.5536 H   0  0  0  0  0  0  0  0  0  0  0  0
    2.5977   -0.5563    1.4840 H   0  0  0  0  0  0  0  0  0  0  0  0
    2.5408    1.2105   -1.3824 H   0  0  0  0  0  0  0  0  0  0  0  0
    3.4544    0.8303    0.0942 H   0  0  0  0  0  0  0  0  0  0  0  0
    3.3988   -0.6118   -2.0732 H   0  0  0  0  0  0  0  0  0  0  0  0
   -0.9762    2.9655   -0.4521 H   0  0  0  0  0  0  0  0  0  0  0  0
   -1.9738    1.8261   -1.3639 H   0  0  0  0  0  0  0  0  0  0  0  0
   -4.2007   -1.1848   -0.1847 H   0  0  0  0  0  0  0  0  0  0  0  0
  2  1  1  1
  2  3  1  0
  3  4  1  0
  4  5  1  0
  4  6  1  0
  6  7  1  0
  2  8  1  0
  8  9  1  0
  8 10  2  0
  2 11  1  0
 11 12  2  0
 11 13  1  0
  1 14  1  0
  1 15  1  0
  1 16  1  0
  3 17  1  0
  3 18  1  0
  4 19  1  1
  5 20  1  0
  6 21  1  0
  6 22  1  0
  7 23  1  0
  9 24  1  0
  9 25  1  0
 13 26  1  0
M  END
$$$$

     RDKit          3D

 26 25  0  0  0  0  0  0  0  0999 V2000
   -0.9242   -0.0811    1.3608 C   0  0  0  0  0  0  0  0  0  0  0  0
   -0.8556   -0.0116   -0.1314 C   0  0  2  0  0  0  0  0  0  0  0  0
    0.4360    0.3095   -0.7590 C   0  0  0  0  0  0  0  0  0  0  0  0
    1.6094   -0.5749   -0.5545 C   0  0  1  0  0  0  0  0  0  0  0  0
    2.6945   -0.0162   -1.3261 O   0  0  0  0  0  0  0  0  0  0  0  0
    2.0718   -0.6097    0.8799 C   0  0  0  0  0  0  0  0  0  0  0  0
    2.3556    0.6976    1.3029 O   0  0  0  0  0  0  0  0  0  0  0  0
   -1.8483    1.0514   -0.5663 C   0  0  0  0  0  0  0  0  0  0  0  0
   -1.7101    2.3801   -0.1034 N   0  0  0  0  0  0  0  0  0  0  0  0
   -2.7686    0.7397   -1.3230 O   0  0  0  0  0  0  0  0  0  0  0  0
   -1.4058   -1.3070   -0.6692 C   0  0  0  0  0  0  0  0  0  0  0  0
   -0.7101   -2.0278   -1.4147 O   0  0  0  0  0  0  0  0  0  0  0  0
   -2.6868   -1.7396   -0.3610 O   0  0  0  0  0  0  0  0  0  0  0  0
   -1.9724    0.2586    1.6910 H   0  0  0  0  0  0  0  0  0  0  0  0
   -0.2617    0.5929    1.9046 H   0  0  0  0  0  0  0  0  0  0  0  0
   -0.9193   -1.1410    1.7345 H   0  0  0  0  0  0  0  0  0  0  0  0
    0.2884    0.4670   -1.8799 H   0  0  0  0  0  0  0  0  0  0  0  0
    0.6952    1.3724   -0.4142 H   0  0  0  0  0  0  0  0  0  0  0  0
    1.4766   -1.5878   -0.9164 H   0  0  0  0  0  0  0  0  0  0  0  0
    3.3757   -0.7393   -1.3605 H   0  0  0  0  0  0  0  0  0  0  0  0
    3.0616   -1.1677    0.9200 H   0  0  0  0  0  0  0  0  0  0  0  0
    1.3651   -1.0437    1.5889 H   0  0  0  0  0  0  0  0  0  0  0  0
    2.9333    1.0791    0.5665 H   0  0  0  0  0  0  0  0  0  0  0  0
   -0.8361    2.7658    0.3257 H   0  0  0  0  0  0  0  0  0  0  0  0
   -2.5082    3.0369   -0.1810 H   0  0  0  0  0  0  0  0  0  0  0  0
   -2.9561   -2.7035   -0.3144 H   0  0  0  0  0  0  0  0  0  0  0  0
  2  1  1  1
  2  3  1  0
  3  4  1  0
  4  5  1  0
  4  6  1  0
  6  7  1  0
  2  8  1  0
  8  9  1  0
  8 10  2  0
  2 11  1  0
 11 12  2  0
 11 13  1  0
  1 14  1  0
  1 15  1  0
  1 16  1  0
  3 17  1  0
  3 18  1  0
  4 19  1  6
  5 20  1  0
  6 21  1  0
  6 22  1  0
  7 23  1  0
  9 24  1  0
  9 25  1  0
 13 26  1  0
M  END
$$$$

     RDKit          3D

 26 25  0  0  0  0  0  0  0  0999 V2000
   -1.8379   -0.8514    1.1238 C   0  0  0  0  0  0  0  0  0  0  0  0
   -0.9126   -0.1794    0.0772 C   0  0  2  0  0  0  0  0  0  0  0  0
    0.4665   -0.3873    0.5775 C   0  0  0  0  0  0  0  0  0  0  0  0
    1.5880    0.1265   -0.2374 C   0  0  1  0  0  0  0  0  0  0  0  0
    1.5826    1.4735   -0.4535 O   0  0  0  0  0  0  0  0  0  0  0  0
    2.8787   -0.2080    0.5168 C   0  0  0  0  0  0  0  0  0  0  0  0
    3.9952    0.1512   -0.2156 O   0  0  0  0  0  0  0  0  0  0  0  0
   -1.3424    1.2513    0.1090 C   0  0  0  0  0  0  0  0  0  0  0  0
   -2.6755    1.5651   -0.3547 N   0  0  0  0  0  0  0  0  0  0  0  0
   -0.6594    2.1984    0.4995 O   0  0  0  0  0  0  0  0  0  0  0  0
   -1.1799   -0.7859   -1.2330 C   0  0  0  0  0  0  0  0  0  0  0  0
   -1.5764   -0.0769   -2.1789 O   0  0  0  0  0  0  0  0  0  0  0  0
   -0.9997   -2.1359   -1.4401 O   0  0  0  0  0  0  0  0  0  0  0  0
   -1.9549   -0.1742    1.9782 H   0  0  0  0  0  0  0  0  0  0  0  0
   -1.3845   -1.8112    1.4073 H   0  0  0  0  0  0  0  0  0  0  0  0
   -2.7920   -1.0790    0.5983 H   0  0  0  0  0  0  0  0  0  0  0  0
    0.5554    0.1086    1.5923 H   0  0  0  0  0  0  0  0  0  0  0  0
    0.6330   -1.4766    0.7440 H   0  0  0  0  0  0  0  0  0  0  0  0
    1.6124   -0.4078   -1.2125 H   0  0  0  0  0  0  0  0  0  0  0  0
    2.1379    1.9913    0.1591 H   0  0  0  0  0  0  0  0  0  0  0  0
    2.9277   -1.2825    0.7331 H   0  0  0  0  0  0  0  0  0  0  0  0
    2.9096    0.3583    1.4694 H   0  0  0  0  0  0  0  0  0  0  0  0
    3.7393    0.8970   -0.8050 H   0  0  0  0  0  0  0  0  0  0  0  0
   -3.4714    1.5308    0.3018 H   0  0  0  0  0  0  0  0  0  0  0  0
   -2.7570    1.8169   -1.3630 H   0  0  0  0  0  0  0  0  0  0  0  0
   -1.4827   -2.6129   -2.2069 H   0  0  0  0  0  0  0  0  0  0  0  0
  2  1  1  1
  2  3  1  0
  3  4  1  0
  4  5  1  0
  4  6  1  0
  6  7  1  0
  2  8  1  0
  8  9  1  0
  8 10  2  0
  2 11  1  0
 11 12  2  0
 11 13  1  0
  1 14  1  0
  1 15  1  0
  1 16  1  0
  3 17  1  0
  3 18  1  0
  4 19  1  6
  5 20  1  0
  6 21  1  0
  6 22  1  0
  7 23  1  0
  9 24  1  0
  9 25  1  0
 13 26  1  0
M  END
$$$$

     RDKit          3D

 26 25  0  0  0  0  0  0  0  0999 V2000
   -0.7434   -1.5939   -0.9992 C   0  0  0  0  0  0  0  0  0  0  0  0
   -0.9112   -0.3247   -0.2285 C   0  0  2  0  0  0  0  0  0  0  0  0
    0.1825    0.6575   -0.4808 C   0  0  0  0  0  0  0  0  0  0  0  0
    1.4909    0.0206   -0.0709 C   0  0  1  0  0  0  0  0  0  0  0  0
    1.7141   -1.1280   -0.8098 O   0  0  0  0  0  0  0  0  0  0  0  0
    2.6643    0.9430   -0.2914 C   0  0  0  0  0  0  0  0  0  0  0  0
    2.5480    2.1336    0.4053 O   0  0  0  0  0  0  0  0  0  0  0  0
   -0.8960   -0.6259    1.2477 C   0  0  0  0  0  0  0  0  0  0  0  0
   -1.0427    0.4566    2.1513 N   0  0  0  0  0  0  0  0  0  0  0  0
   -0.7564   -1.8066    1.6479 O   0  0  0  0  0  0  0  0  0  0  0  0
   -2.2614    0.2122   -0.5191 C   0  0  0  0  0  0  0  0  0  0  0  0
   -2.4938    1.3199   -1.0294 O   0  0  0  0  0  0  0  0  0  0  0  0
   -3.3433   -0.5954   -0.1908 O   0  0  0  0  0  0  0  0  0  0  0  0
   -0.2143   -2.3744   -0.4022 H   0  0  0  0  0  0  0  0  0  0  0  0
   -1.7331   -2.0687   -1.2495 H   0  0  0  0  0  0  0  0  0  0  0  0
   -0.2637   -1.4447   -2.0041 H   0  0  0  0  0  0  0  0  0  0  0  0
   -0.0340    1.5750    0.0942 H   0  0  0  0  0  0  0  0  0  0  0  0
    0.2026    0.9037   -1.5621 H   0  0  0  0  0  0  0  0  0  0  0  0
    1.4952   -0.2570    1.0006 H   0  0  0  0  0  0  0  0  0  0  0  0
    2.1654   -0.9170   -1.6732 H   0  0  0  0  0  0  0  0  0  0  0  0
    3.5582    0.4164    0.1327 H   0  0  0  0  0  0  0  0  0  0  0  0
    2.8883    1.1383   -1.3413 H   0  0  0  0  0  0  0  0  0  0  0  0
    2.2302    1.9470    1.3346 H   0  0  0  0  0  0  0  0  0  0  0  0
   -1.7797    1.1851    2.0784 H   0  0  0  0  0  0  0  0  0  0  0  0
   -0.3691    0.5269    2.9388 H   0  0  0  0  0  0  0  0  0  0  0  0
   -4.2976   -0.2994   -0.1791 H   0  0  0  0  0  0  0  0  0  0  0  0
  2  1  1  6
  2  3  1  0
  3  4  1  0
  4  5  1  0
  4  6  1  0
  6  7  1  0
  2  8  1  0
  8  9  1  0
  8 10  2  0
  2 11  1  0
 11 12  2  0
 11 13  1  0
  1 14  1  0
  1 15  1  0
  1 16  1  0
  3 17  1  0
  3 18  1  0
  4 19  1  1
  5 20  1  0
  6 21  1  0
  6 22  1  0
  7 23  1  0
  9 24  1  0
  9 25  1  0
 13 26  1  0
M  END
$$$$
