
     RDKit          3D

 27 27  0  0  0  0  0  0  0  0999 V2000
    3.3799   -1.2600    0.2234 C   0  0  0  0  0  0  0  0  0  0  0  0
    3.0145   -0.2114   -0.0238 C   0  0  0  0  0  0  0  0  0  0  0  0
    2.5585    1.0288   -0.3223 C   0  0  1  0  0  0  0  0  0  0  0  0
    3.1557    1.9275   -1.2068 C   0  0  0  0  0  0  0  0  0  0  0  0
    1.1734    0.5145   -0.9109 N   0  0  0  0  0  0  0  0  0  0  0  0
    0.2494   -0.1158   -0.0042 C   0  0  0  0  0  0  0  0  0  0  0  0
    0.4306    0.0182    1.2351 O   0  0  0  0  0  0  0  0  0  0  0  0
   -0.8380   -0.9453   -0.5218 C   0  0  1  0  0  0  0  0  0  0  0  0
   -1.6358   -1.4903    0.6808 C   0  0  0  0  0  0  0  0  0  0  0  0
   -2.5439   -0.2960    0.9329 C   0  0  2  0  0  0  0  0  0  0  0  0
   -3.5860   -0.5464    1.7704 O   0  0  0  0  0  0  0  0  0  0  0  0
   -2.9946   -0.0329   -0.5155 C   0  0  0  0  0  0  0  0  0  0  0  0
   -1.8170   -0.2564   -1.2695 N   0  0  0  0  0  0  0  0  0  0  0  0
    3.8095   -2.5593    0.5392 H   0  0  0  0  0  0  0  0  0  0  0  0
    2.1184    1.5124    0.6845 H   0  0  0  0  0  0  0  0  0  0  0  0
    3.6071    2.7736   -0.5911 H   0  0  0  0  0  0  0  0  0  0  0  0
    3.9564    1.5123   -1.8024 H   0  0  0  0  0  0  0  0  0  0  0  0
    2.4482    2.5266   -1.8925 H   0  0  0  0  0  0  0  0  0  0  0  0
    1.0049    0.5743   -1.8930 H   0  0  0  0  0  0  0  0  0  0  0  0
   -0.3383   -1.8050   -1.0404 H   0  0  0  0  0  0  0  0  0  0  0  0
   -0.9834   -1.7084    1.5182 H   0  0  0  0  0  0  0  0  0  0  0  0
   -2.2827   -2.3286    0.3719 H   0  0  0  0  0  0  0  0  0  0  0  0
   -1.8976    0.5699    1.1872 H   0  0  0  0  0  0  0  0  0  0  0  0
   -3.3577   -0.2350    2.6808 H   0  0  0  0  0  0  0  0  0  0  0  0
   -3.7625   -0.8024   -0.7536 H   0  0  0  0  0  0  0  0  0  0  0  0
   -3.3773    1.0067   -0.5794 H   0  0  0  0  0  0  0  0  0  0  0  0
   -1.4920    0.6286   -1.7005 H   0  0  0  0  0  0  0  0  0  0  0  0
  1  2  3  0
  2  3  1  0
  3  4  1  0
  3  5  1  0
  5  6  1  0
  6  7  2  0
  6  8  1  0
  8  9  1  0
  9 10  1  0
 10 11  1  0
 10 12  1  0
 12 13  1  0
 13  8  1  0
  1 14  1  0
  3 15  1  1
  4 16  1  0
  4 17  1  0
  4 18  1  0
  5 19  1  0
  8 20  1  6
  9 21  1  0
  9 22  1  0
 10 23  1  1
 11 24  1  0
 12 25  1  0
 12 26  1  0
 13 27  1  0
M  END
$$$$

     RDKit          3D

 27 27  0  0  0  0  0  0  0  0999 V2000
    3.6276    1.2024   -2.0926 C   0  0  0  0  0  0  0  0  0  0  0  0
    3.1589    1.0627   -0.9917 C   0  0  0  0  0  0  0  0  0  0  0  0
    2.5689    0.8718    0.3569 C   0  0  1  0  0  0  0  0  0  0  0  0
    2.9990    1.9874    1.2629 C   0  0  0  0  0  0  0  0  0  0  0  0
    1.1466    0.7233    0.2626 N   0  0  0  0  0  0  0  0  0  0  0  0
    0.4302   -0.4301    0.6742 C   0  0  0  0  0  0  0  0  0  0  0  0
    1.0646   -1.3957    1.1553 O   0  0  0  0  0  0  0  0  0  0  0  0
   -1.0233   -0.4591    0.5256 C   0  0  1  0  0  0  0  0  0  0  0  0
   -1.4916   -0.4536   -0.9086 C   0  0  0  0  0  0  0  0  0  0  0  0
   -2.8733   -1.1090   -0.7870 C   0  0  2  0  0  0  0  0  0  0  0  0
   -3.8900   -0.1711   -0.8438 O   0  0  0  0  0  0  0  0  0  0  0  0
   -2.8852   -1.7943    0.5501 C   0  0  0  0  0  0  0  0  0  0  0  0
   -1.5249   -1.7283    1.0100 N   0  0  0  0  0  0  0  0  0  0  0  0
    4.0431    1.3086   -3.0713 H   0  0  0  0  0  0  0  0  0  0  0  0
    2.9730   -0.0691    0.8021 H   0  0  0  0  0  0  0  0  0  0  0  0
    2.5906    2.9711    0.9714 H   0  0  0  0  0  0  0  0  0  0  0  0
    2.6971    1.7472    2.2977 H   0  0  0  0  0  0  0  0  0  0  0  0
    4.1054    2.0358    1.2368 H   0  0  0  0  0  0  0  0  0  0  0  0
    0.6146    1.5487   -0.1475 H   0  0  0  0  0  0  0  0  0  0  0  0
   -1.4904    0.3653    1.0886 H   0  0  0  0  0  0  0  0  0  0  0  0
   -1.6760    0.5719   -1.2898 H   0  0  0  0  0  0  0  0  0  0  0  0
   -0.8293   -1.0177   -1.5613 H   0  0  0  0  0  0  0  0  0  0  0  0
   -3.0210   -1.8147   -1.6271 H   0  0  0  0  0  0  0  0  0  0  0  0
   -3.5591    0.7164   -1.1491 H   0  0  0  0  0  0  0  0  0  0  0  0
   -3.5650   -1.3073    1.2767 H   0  0  0  0  0  0  0  0  0  0  0  0
   -3.2010   -2.8672    0.4397 H   0  0  0  0  0  0  0  0  0  0  0  0
   -0.9896   -2.4955    0.5592 H   0  0  0  0  0  0  0  0  0  0  0  0
  1  2  3  0
  2  3  1  0
  3  4  1  0
  3  5  1  0
  5  6  1  0
  6  7  2  0
  6  8  1  0
  8  9  1  0
  9 10  1  0
 10 11  1  0
 10 12  1  0
 12 13  1  0
 13  8  1  0
  1 14  1  0
  3 15  1  1
  4 16  1  0
  4 17  1  0
  4 18  1  0
  5 19  1  0
  8 20  1  1
  9 21  1  0
  9 22  1  0
 10 23  1  6
 11 24  1  0
 12 25  1  0
 12 26  1  0
 13 27  1  0
M  END
$$$$

     RDKit          3D

 27 27  0  0  0  0  0  0  0  0999 V2000
    4.1590   -0.6614   -0.1524 C   0  0  0  0  0  0  0  0  0  0  0  0
    3.3107    0.2699    0.0163 C   0  0  0  0  0  0  0  0  0  0  0  0
    2.3310    1.3140    0.2213 C   0  0  1  0  0  0  0  0  0  0  0  0
    2.6671    2.5895   -0.4368 C   0  0  0  0  0  0  0  0  0  0  0  0
    1.0025    0.8330    0.0247 N   0  0  0  0  0  0  0  0  0  0  0  0
    0.5162   -0.4099    0.5681 C   0  0  0  0  0  0  0  0  0  0  0  0
    1.2835   -1.1601    1.2200 O   0  0  0  0  0  0  0  0  0  0  0  0
   -0.8646   -0.7277    0.3236 C   0  0  1  0  0  0  0  0  0  0  0  0
   -1.4534   -0.4758   -1.0213 C   0  0  0  0  0  0  0  0  0  0  0  0
   -2.9126   -0.8630   -0.6818 C   0  0  2  0  0  0  0  0  0  0  0  0
   -3.5611    0.3249   -0.2809 O   0  0  0  0  0  0  0  0  0  0  0  0
   -2.8149   -1.8154    0.4885 C   0  0  0  0  0  0  0  0  0  0  0  0
   -1.3653   -2.0249    0.6337 N   0  0  0  0  0  0  0  0  0  0  0  0
    4.8619   -1.4153   -0.2785 H   0  0  0  0  0  0  0  0  0  0  0  0
    2.4008    1.4798    1.3754 H   0  0  0  0  0  0  0  0  0  0  0  0
    3.2131    2.3610   -1.4022 H   0  0  0  0  0  0  0  0  0  0  0  0
    3.4218    3.2004    0.1604 H   0  0  0  0  0  0  0  0  0  0  0  0
    1.8159    3.2669   -0.6721 H   0  0  0  0  0  0  0  0  0  0  0  0
    0.3286    1.4152   -0.5505 H   0  0  0  0  0  0  0  0  0  0  0  0
   -1.5038   -0.0402    1.0354 H   0  0  0  0  0  0  0  0  0  0  0  0
   -1.4120    0.6124   -1.2635 H   0  0  0  0  0  0  0  0  0  0  0  0
   -1.0601   -1.0658   -1.8534 H   0  0  0  0  0  0  0  0  0  0  0  0
   -3.4323   -1.3228   -1.5170 H   0  0  0  0  0  0  0  0  0  0  0  0
   -3.2914    1.1059   -0.8088 H   0  0  0  0  0  0  0  0  0  0  0  0
   -3.1201   -1.2995    1.4376 H   0  0  0  0  0  0  0  0  0  0  0  0
   -3.3529   -2.7665    0.2998 H   0  0  0  0  0  0  0  0  0  0  0  0
   -1.1675   -2.7246   -0.1651 H   0  0  0  0  0  0  0  0  0  0  0  0
  1  2  3  0
  2  3  1  0
  3  4  1  0
  3  5  1  0
  5  6  1  0
  6  7  2  0
  6  8  1  0
  8  9  1  0
  9 10  1  0
 10 11  1  0
 10 12  1  0
 12 13  1  0
 13  8  1  0
  1 14  1  0
  3 15  1  1
  4 16  1  0
  4 17  1  0
  4 18  1  0
  5 19  1  0
  8 20  1  1
  9 21  1  0
  9 22  1  0
 10 23  1  6
 11 24  1  0
 12 25  1  0
 12 26  1  0
 13 27  1  0
M  END
$$$$

     RDKit          3D

 27 27  0  0  0  0  0  0  0  0999 V2000
   -3.0867    2.9617    0.1030 C   0  0  0  0  0  0  0  0  0  0  0  0
   -2.9351    1.8275    0.4131 C   0  0  0  0  0  0  0  0  0  0  0  0
   -2.7620    0.4348    0.8148 C   0  0  1  0  0  0  0  0  0  0  0  0
   -3.4546   -0.4542   -0.1596 C   0  0  0  0  0  0  0  0  0  0  0  0
   -1.2910    0.2753    0.7321 N   0  0  0  0  0  0  0  0  0  0  0  0
   -0.5429   -0.8909    0.5878 C   0  0  0  0  0  0  0  0  0  0  0  0
   -1.2014   -1.9538    0.5279 O   0  0  0  0  0  0  0  0  0  0  0  0
    0.9021   -0.8978    0.5383 C   0  0  1  0  0  0  0  0  0  0  0  0
    1.6798   -0.7972   -0.6996 C   0  0  0  0  0  0  0  0  0  0  0  0
    2.8824    0.0548   -0.3107 C   0  0  2  0  0  0  0  0  0  0  0  0
    4.0477   -0.3351   -0.9426 O   0  0  0  0  0  0  0  0  0  0  0  0
    2.9547   -0.1928    1.1678 C   0  0  0  0  0  0  0  0  0  0  0  0
    1.5726   -0.1376    1.6002 N   0  0  0  0  0  0  0  0  0  0  0  0
   -3.2166    4.0056   -0.1797 H   0  0  0  0  0  0  0  0  0  0  0  0
   -3.1402    0.2255    1.7942 H   0  0  0  0  0  0  0  0  0  0  0  0
   -2.8525   -0.6290   -1.0577 H   0  0  0  0  0  0  0  0  0  0  0  0
   -4.3766    0.0170   -0.4630 H   0  0  0  0  0  0  0  0  0  0  0  0
   -3.7047   -1.3932    0.3699 H   0  0  0  0  0  0  0  0  0  0  0  0
   -0.7431    1.1487    0.9185 H   0  0  0  0  0  0  0  0  0  0  0  0
    1.1698   -1.9845    0.9335 H   0  0  0  0  0  0  0  0  0  0  0  0
    1.2227   -0.3795   -1.5847 H   0  0  0  0  0  0  0  0  0  0  0  0
    2.1504   -1.8286   -0.9744 H   0  0  0  0  0  0  0  0  0  0  0  0
    2.6312    1.1174   -0.5096 H   0  0  0  0  0  0  0  0  0  0  0  0
    3.8320   -0.6342   -1.8306 H   0  0  0  0  0  0  0  0  0  0  0  0
    3.4454   -1.1224    1.4736 H   0  0  0  0  0  0  0  0  0  0  0  0
    3.4915    0.6735    1.6996 H   0  0  0  0  0  0  0  0  0  0  0  0
    1.3248    0.8890    1.5106 H   0  0  0  0  0  0  0  0  0  0  0  0
  1  2  3  0
  2  3  1  0
  3  4  1  0
  3  5  1  0
  5  6  1  0
  6  7  2  0
  6  8  1  0
  8  9  1  0
  9 10  1  0
 10 11  1  0
 10 12  1  0
 12 13  1  0
 13  8  1  0
  1 14  1  0
  3 15  1  1
  4 16  1  0
  4 17  1  0
  4 18  1  0
  5 19  1  0
  8 20  1  1
  9 21  1  0
  9 22  1  0
 10 23  1  1
 11 24  1  0
 12 25  1  0
 12 26  1  0
 13 27  1  0
M  END
$$$$

     RDKit          3D

 27 27  0  0  0  0  0  0  0  0999 V2000
    4.4862    1.5594   -0.3317 C   0  0  0  0  0  0  0  0  0  0  0  0
    3.7976    0.8809   -0.4094 C   0  0  0  0  0  0  0  0  0  0  0  0
    2.7170   -0.1829   -0.5558 C   0  0  1  0  0  0  0  0  0  0  0  0
    2.8023   -1.2473    0.3395 C   0  0  0  0  0  0  0  0  0  0  0  0
    1.4192    0.6171   -0.3873 N   0  0  0  0  0  0  0  0  0  0  0  0
    0.3731   -0.2707   -0.6458 C   0  0  0  0  0  0  0  0  0  0  0  0
    0.4154   -1.4935   -0.9065 O   0  0  0  0  0  0  0  0  0  0  0  0
   -1.1141    0.1936   -0.5925 C   0  0  1  0  0  0  0  0  0  0  0  0
   -1.8722   -0.8894    0.2351 C   0  0  0  0  0  0  0  0  0  0  0  0
   -3.2215   -0.0993    0.5390 C   0  0  2  0  0  0  0  0  0  0  0  0
   -4.1784   -0.6589   -0.1752 O   0  0  0  0  0  0  0  0  0  0  0  0
   -2.7489    1.3426    0.0913 C   0  0  0  0  0  0  0  0  0  0  0  0
   -1.3240    1.2299    0.2255 N   0  0  0  0  0  0  0  0  0  0  0  0
    5.7597    2.8484   -0.1660 H   0  0  0  0  0  0  0  0  0  0  0  0
    2.7319   -0.3737   -1.6963 H   0  0  0  0  0  0  0  0  0  0  0  0
    3.4408   -1.1161    1.2366 H   0  0  0  0  0  0  0  0  0  0  0  0
    1.8157   -1.5835    0.7151 H   0  0  0  0  0  0  0  0  0  0  0  0
    3.1836   -2.1852   -0.2887 H   0  0  0  0  0  0  0  0  0  0  0  0
    1.2566    1.4573   -0.0150 H   0  0  0  0  0  0  0  0  0  0  0  0
   -1.5023    0.1026   -1.5466 H   0  0  0  0  0  0  0  0  0  0  0  0
   -1.3783   -1.0747    1.2584 H   0  0  0  0  0  0  0  0  0  0  0  0
   -2.0006   -1.8544   -0.2645 H   0  0  0  0  0  0  0  0  0  0  0  0
   -3.3509   -0.0499    1.5421 H   0  0  0  0  0  0  0  0  0  0  0  0
   -4.0758   -1.6383   -0.0696 H   0  0  0  0  0  0  0  0  0  0  0  0
   -3.0722    1.3572   -0.9740 H   0  0  0  0  0  0  0  0  0  0  0  0
   -3.2770    2.0481    0.7719 H   0  0  0  0  0  0  0  0  0  0  0  0
   -1.0830    1.0807    1.2365 H   0  0  0  0  0  0  0  0  0  0  0  0
  1  2  3  0
  2  3  1  0
  3  4  1  0
  3  5  1  0
  5  6  1  0
  6  7  2  0
  6  8  1  0
  8  9  1  0
  9 10  1  0
 10 11  1  0
 10 12  1  0
 12 13  1  0
 13  8  1  0
  1 14  1  0
  3 15  1  6
  4 16  1  0
  4 17  1  0
  4 18  1  0
  5 19  1  0
  8 20  1  6
  9 21  1  0
  9 22  1  0
 10 23  1  1
 11 24  1  0
 12 25  1  0
 12 26  1  0
 13 27  1  0
M  END
$$$$

     RDKit          3D

 27 27  0  0  0  0  0  0  0  0999 V2000
    4.4450   -1.3866    1.0379 C   0  0  0  0  0  0  0  0  0  0  0  0
    3.1029   -1.1308    1.4025 C   0  0  0  0  0  0  0  0  0  0  0  0
    1.7007   -0.8403    1.7712 C   0  0  1  0  0  0  0  0  0  0  0  0
    2.0820   -0.1718    3.1444 C   0  0  0  0  0  0  0  0  0  0  0  0
    1.2287   -0.2816    0.6919 N   0  0  0  0  0  0  0  0  0  0  0  0
   -0.2915   -0.3247    0.5098 C   0  0  0  0  0  0  0  0  0  0  0  0
   -0.9993   -0.9210    1.3724 O   0  0  0  0  0  0  0  0  0  0  0  0
   -0.9114    0.3108   -0.6062 C   0  0  1  0  0  0  0  0  0  0  0  0
   -1.8715   -0.6025   -1.4523 C   0  0  0  0  0  0  0  0  0  0  0  0
   -2.0059    0.5554   -2.5646 C   0  0  2  0  0  0  0  0  0  0  0  0
   -0.7931    0.8622   -3.0546 O   0  0  0  0  0  0  0  0  0  0  0  0
   -2.5406    1.6502   -1.6199 C   0  0  0  0  0  0  0  0  0  0  0  0
   -1.8904    1.3396   -0.3031 N   0  0  0  0  0  0  0  0  0  0  0  0
    5.3608   -1.5512    0.8036 H   0  0  0  0  0  0  0  0  0  0  0  0
    1.3015   -1.8803    2.0698 H   0  0  0  0  0  0  0  0  0  0  0  0
    3.1790    0.2438    3.0768 H   0  0  0  0  0  0  0  0  0  0  0  0
    2.4271   -1.1661    3.8416 H   0  0  0  0  0  0  0  0  0  0  0  0
    1.5224    0.3576    3.7839 H   0  0  0  0  0  0  0  0  0  0  0  0
    1.7284    0.1536   -0.1406 H   0  0  0  0  0  0  0  0  0  0  0  0
   -0.1356    0.7603   -1.3482 H   0  0  0  0  0  0  0  0  0  0  0  0
   -2.9067   -0.5168   -0.9756 H   0  0  0  0  0  0  0  0  0  0  0  0
   -1.5650   -1.4698   -1.8965 H   0  0  0  0  0  0  0  0  0  0  0  0
   -2.7820    0.1243   -3.2443 H   0  0  0  0  0  0  0  0  0  0  0  0
   -0.9223    1.0156   -4.0658 H   0  0  0  0  0  0  0  0  0  0  0  0
   -2.2101    2.5988   -1.9795 H   0  0  0  0  0  0  0  0  0  0  0  0
   -3.6450    1.4959   -1.5398 H   0  0  0  0  0  0  0  0  0  0  0  0
   -2.6082    0.7755    0.3023 H   0  0  0  0  0  0  0  0  0  0  0  0
  1  2  3  0
  2  3  1  0
  3  4  1  0
  3  5  1  0
  5  6  1  0
  6  7  2  0
  6  8  1  0
  8  9  1  0
  9 10  1  0
 10 11  1  0
 10 12  1  0
 12 13  1  0
 13  8  1  0
  1 14  1  0
  3 15  1  1
  4 16  1  0
  4 17  1  0
  4 18  1  0
  5 19  1  0
  8 20  1  6
  9 21  1  0
  9 22  1  0
 10 23  1  6
 11 24  1  0
 12 25  1  0
 12 26  1  0
 13 27  1  0
M  END
$$$$

     RDKit          3D

 27 27  0  0  0  0  0  0  0  0999 V2000
    3.9796    0.0688   -1.4026 C   0  0  0  0  0  0  0  0  0  0  0  0
    3.5359   -0.1810   -0.9303 C   0  0  0  0  0  0  0  0  0  0  0  0
    2.6751   -0.6658   -0.0106 C   0  0  1  0  0  0  0  0  0  0  0  0
    3.1575   -0.1964    1.4781 C   0  0  0  0  0  0  0  0  0  0  0  0
    1.3159   -0.4289   -0.0081 N   0  0  0  0  0  0  0  0  0  0  0  0
    0.4984    0.6127   -0.6389 C   0  0  0  0  0  0  0  0  0  0  0  0
    1.1181    1.4765   -1.3492 O   0  0  0  0  0  0  0  0  0  0  0  0
   -0.9447    0.6873   -0.4376 C   0  0  1  0  0  0  0  0  0  0  0  0
   -1.7674   -0.5250   -0.6770 C   0  0  0  0  0  0  0  0  0  0  0  0
   -3.0623   -0.1638   -0.0355 C   0  0  2  0  0  0  0  0  0  0  0  0
   -4.0518   -0.0181   -1.0181 O   0  0  0  0  0  0  0  0  0  0  0  0
   -2.8434    1.1081    0.7203 C   0  0  0  0  0  0  0  0  0  0  0  0
   -1.3814    1.1159    0.8594 N   0  0  0  0  0  0  0  0  0  0  0  0
    4.9326    0.6043   -2.3812 H   0  0  0  0  0  0  0  0  0  0  0  0
    2.6753   -1.7627    0.1685 H   0  0  0  0  0  0  0  0  0  0  0  0
    3.3292   -1.0886    2.0616 H   0  0  0  0  0  0  0  0  0  0  0  0
    2.3637    0.4649    1.8747 H   0  0  0  0  0  0  0  0  0  0  0  0
    4.0154    0.3982    1.2597 H   0  0  0  0  0  0  0  0  0  0  0  0
    0.7151   -1.0700    0.6348 H   0  0  0  0  0  0  0  0  0  0  0  0
   -1.3893    1.4840   -1.1087 H   0  0  0  0  0  0  0  0  0  0  0  0
   -1.3413   -1.4751   -0.3084 H   0  0  0  0  0  0  0  0  0  0  0  0
   -1.8934   -0.6324   -1.8027 H   0  0  0  0  0  0  0  0  0  0  0  0
   -3.3946   -1.0054    0.6359 H   0  0  0  0  0  0  0  0  0  0  0  0
   -4.4924    0.8651   -0.9553 H   0  0  0  0  0  0  0  0  0  0  0  0
   -3.1312    1.9859    0.0873 H   0  0  0  0  0  0  0  0  0  0  0  0
   -3.3883    1.1168    1.7069 H   0  0  0  0  0  0  0  0  0  0  0  0
   -1.2302    0.3373    1.5770 H   0  0  0  0  0  0  0  0  0  0  0  0
  1  2  3  0
  2  3  1  0
  3  4  1  0
  3  5  1  0
  5  6  1  0
  6  7  2  0
  6  8  1  0
  8  9  1  0
  9 10  1  0
 10 11  1  0
 10 12  1  0
 12 13  1  0
 13  8  1  0
  1 14  1  0
  3 15  1  1
  4 16  1  0
  4 17  1  0
  4 18  1  0
  5 19  1  0
  8 20  1  6
  9 21  1  0
  9 22  1  0
 10 23  1  1
 11 24  1  0
 12 25  1  0
 12 26  1  0
 13 27  1  0
M  END
$$$$

     RDKit          3D

 27 27  0  0  0  0  0  0  0  0999 V2000
    2.9703    1.6069    3.5642 C   0  0  0  0  0  0  0  0  0  0  0  0
    1.9695    1.6589    2.7869 C   0  0  0  0  0  0  0  0  0  0  0  0
    0.8923    1.6914    1.9451 C   0  0  1  0  0  0  0  0  0  0  0  0
    1.3033    2.6737    0.7343 C   0  0  0  0  0  0  0  0  0  0  0  0
    1.0219    0.4130    1.1053 N   0  0  0  0  0  0  0  0  0  0  0  0
   -0.0337    0.1296    0.2147 C   0  0  0  0  0  0  0  0  0  0  0  0
   -1.0181    0.8714    0.1545 O   0  0  0  0  0  0  0  0  0  0  0  0
    0.0170   -1.0797   -0.6923 C   0  0  1  0  0  0  0  0  0  0  0  0
   -0.9178   -2.1645   -0.2888 C   0  0  0  0  0  0  0  0  0  0  0  0
   -2.0756   -2.0891   -1.2454 C   0  0  2  0  0  0  0  0  0  0  0  0
   -2.1186   -3.1650   -2.1355 O   0  0  0  0  0  0  0  0  0  0  0  0
   -1.7863   -0.8047   -2.0374 C   0  0  0  0  0  0  0  0  0  0  0  0
   -0.3489   -0.7218   -2.0236 N   0  0  0  0  0  0  0  0  0  0  0  0
    3.9301    1.5775    4.3165 H   0  0  0  0  0  0  0  0  0  0  0  0
   -0.0530    1.9970    2.1886 H   0  0  0  0  0  0  0  0  0  0  0  0
    1.4287    3.6809    1.0337 H   0  0  0  0  0  0  0  0  0  0  0  0
    2.2531    2.2562    0.3191 H   0  0  0  0  0  0  0  0  0  0  0  0
    0.5397    2.5357   -0.0559 H   0  0  0  0  0  0  0  0  0  0  0  0
    1.8358   -0.1883    1.1766 H   0  0  0  0  0  0  0  0  0  0  0  0
    1.0598   -1.4951   -0.6954 H   0  0  0  0  0  0  0  0  0  0  0  0
   -1.2661   -2.0436    0.7719 H   0  0  0  0  0  0  0  0  0  0  0  0
   -0.4250   -3.1710   -0.4029 H   0  0  0  0  0  0  0  0  0  0  0  0
   -3.0398   -2.0006   -0.7152 H   0  0  0  0  0  0  0  0  0  0  0  0
   -1.7464   -2.8567   -3.0129 H   0  0  0  0  0  0  0  0  0  0  0  0
   -2.2845    0.0766   -1.6058 H   0  0  0  0  0  0  0  0  0  0  0  0
   -2.1062   -0.9858   -3.0819 H   0  0  0  0  0  0  0  0  0  0  0  0
   -0.0013    0.1837   -2.3186 H   0  0  0  0  0  0  0  0  0  0  0  0
  1  2  3  0
  2  3  1  0
  3  4  1  0
  3  5  1  0
  5  6  1  0
  6  7  2  0
  6  8  1  0
  8  9  1  0
  9 10  1  0
 10 11  1  0
 10 12  1  0
 12 13  1  0
 13  8  1  0
  1 14  1  0
  3 15  1  1
  4 16  1  0
  4 17  1  0
  4 18  1  0
  5 19  1  0
  8 20  1  6
  9 21  1  0
  9 22  1  0
 10 23  1  1
 11 24  1  0
 12 25  1  0
 12 26  1  0
 13 27  1  0
M  END
$$$$
