
     RDKit          3D

 22 22  0  0  0  0  0  0  0  0999 V2000
    0.7478    2.7555    0.9087 O   0  0  0  0  0  0  0  0  0  0  0  0
    0.5330    1.6026    0.4851 C   0  0  0  0  0  0  0  0  0  0  0  0
   -0.7453    1.0065    0.7162 N   0  0  0  0  0  0  0  0  0  0  0  0
   -1.0613   -0.1805   -0.0315 C   0  0  2  0  0  0  0  0  0  0  0  0
   -2.3424   -0.8281    0.3900 C   0  0  0  0  0  0  0  0  0  0  0  0
   -3.3686    0.1016    0.1985 O   0  0  0  0  0  0  0  0  0  0  0  0
    0.1268   -1.0960    0.0101 C   0  0  0  0  0  0  0  0  0  0  0  0
    1.2287   -0.4232   -0.7836 C   0  0  2  0  0  0  0  0  0  0  0  0
    2.3285   -1.2887   -0.8965 O   0  0  0  0  0  0  0  0  0  0  0  0
    1.6186    0.9094   -0.2380 C   0  0  2  0  0  0  0  0  0  0  0  0
    2.7115    0.7610    0.6188 O   0  0  0  0  0  0  0  0  0  0  0  0
   -1.3886    1.4472    1.4058 H   0  0  0  0  0  0  0  0  0  0  0  0
   -1.1975    0.1454   -1.0992 H   0  0  0  0  0  0  0  0  0  0  0  0
   -2.3547   -1.1900    1.4151 H   0  0  0  0  0  0  0  0  0  0  0  0
   -2.5469   -1.6544   -0.3361 H   0  0  0  0  0  0  0  0  0  0  0  0
   -3.1150    0.6510   -0.5849 H   0  0  0  0  0  0  0  0  0  0  0  0
    0.5269   -1.2237    1.0478 H   0  0  0  0  0  0  0  0  0  0  0  0
   -0.0657   -2.0807   -0.4351 H   0  0  0  0  0  0  0  0  0  0  0  0
    0.8215   -0.2906   -1.8215 H   0  0  0  0  0  0  0  0  0  0  0  0
    3.1049   -0.7137   -1.1314 H   0  0  0  0  0  0  0  0  0  0  0  0
    1.9227    1.5802   -1.0764 H   0  0  0  0  0  0  0  0  0  0  0  0
    2.5153    0.0092    1.2382 H   0  0  0  0  0  0  0  0  0  0  0  0
  1  2  2  0
  2  3  1  0
  3  4  1  0
  4  5  1  0
  5  6  1  0
  4  7  1  0
  7  8  1  0
  8  9  1  0
  8 10  1  0
 10 11  1  0
 10  2  1  0
  3 12  1  0
  4 13  1  6
  5 14  1  0
  5 15  1  0
  6 16  1  0
  7 17  1  0
  7 18  1  0
  8 19  1  6
  9 20  1  0
 10 21  1  6
 11 22  1  0
M  END
$$$$

     RDKit          3D

 22 22  0  0  0  0  0  0  0  0999 V2000
    1.2367   -0.3387   -2.5662 O   0  0  0  0  0  0  0  0  0  0  0  0
    0.4903   -0.0410   -1.6322 C   0  0  0  0  0  0  0  0  0  0  0  0
    0.8312    1.0288   -0.7682 N   0  0  0  0  0  0  0  0  0  0  0  0
    0.4630    1.0641    0.6305 C   0  0  2  0  0  0  0  0  0  0  0  0
    1.6444    0.6548    1.4930 C   0  0  0  0  0  0  0  0  0  0  0  0
    1.9996   -0.6437    1.1185 O   0  0  0  0  0  0  0  0  0  0  0  0
   -0.6490    0.0886    0.8956 C   0  0  0  0  0  0  0  0  0  0  0  0
   -1.5340    0.0661   -0.3478 C   0  0  2  0  0  0  0  0  0  0  0  0
   -2.7898   -0.4176   -0.1000 O   0  0  0  0  0  0  0  0  0  0  0  0
   -0.7715   -0.7744   -1.3767 C   0  0  2  0  0  0  0  0  0  0  0  0
   -0.4305   -1.9738   -0.7137 O   0  0  0  0  0  0  0  0  0  0  0  0
    1.3838    1.8651   -1.1262 H   0  0  0  0  0  0  0  0  0  0  0  0
    0.1406    2.0975    0.8759 H   0  0  0  0  0  0  0  0  0  0  0  0
    1.3188    0.5991    2.5518 H   0  0  0  0  0  0  0  0  0  0  0  0
    2.4922    1.3550    1.4067 H   0  0  0  0  0  0  0  0  0  0  0  0
    2.8017   -0.6138    0.5220 H   0  0  0  0  0  0  0  0  0  0  0  0
   -1.2287    0.3267    1.8067 H   0  0  0  0  0  0  0  0  0  0  0  0
   -0.2368   -0.9471    1.0605 H   0  0  0  0  0  0  0  0  0  0  0  0
   -1.5773    1.0904   -0.7861 H   0  0  0  0  0  0  0  0  0  0  0  0
   -3.0020   -1.2836   -0.4866 H   0  0  0  0  0  0  0  0  0  0  0  0
   -1.3577   -0.9624   -2.2759 H   0  0  0  0  0  0  0  0  0  0  0  0
   -1.2249   -2.2400   -0.1815 H   0  0  0  0  0  0  0  0  0  0  0  0
  1  2  2  0
  2  3  1  0
  3  4  1  0
  4  5  1  0
  5  6  1  0
  4  7  1  0
  7  8  1  0
  8  9  1  0
  8 10  1  0
 10 11  1  0
 10  2  1  0
  3 12  1  0
  4 13  1  1
  5 14  1  0
  5 15  1  0
  6 16  1  0
  7 17  1  0
  7 18  1  0
  8 19  1  6
  9 20  1  0
 10 21  1  6
 11 22  1  0
M  END
$$$$

     RDKit          3D

 22 22  0  0  0  0  0  0  0  0999 V2000
   -1.8982    2.3491   -0.9118 O   0  0  0  0  0  0  0  0  0  0  0  0
   -1.2037    1.3552   -0.5818 C   0  0  0  0  0  0  0  0  0  0  0  0
    0.1535    1.5159   -0.2500 N   0  0  0  0  0  0  0  0  0  0  0  0
    0.9606    0.4908    0.3768 C   0  0  2  0  0  0  0  0  0  0  0  0
    2.1733    0.2124   -0.5218 C   0  0  0  0  0  0  0  0  0  0  0  0
    2.9393   -0.7695    0.0862 O   0  0  0  0  0  0  0  0  0  0  0  0
    0.2329   -0.7710    0.6488 C   0  0  0  0  0  0  0  0  0  0  0  0
   -1.2484   -0.6512    0.7432 C   0  0  2  0  0  0  0  0  0  0  0  0
   -1.8097   -1.8852    0.9465 O   0  0  0  0  0  0  0  0  0  0  0  0
   -1.7774   -0.0115   -0.5286 C   0  0  2  0  0  0  0  0  0  0  0  0
   -1.2832   -0.7329   -1.6380 O   0  0  0  0  0  0  0  0  0  0  0  0
    0.6364    2.4215   -0.4572 H   0  0  0  0  0  0  0  0  0  0  0  0
    1.3646    0.9268    1.3081 H   0  0  0  0  0  0  0  0  0  0  0  0
    2.7156    1.1562   -0.6426 H   0  0  0  0  0  0  0  0  0  0  0  0
    1.7581   -0.1368   -1.4796 H   0  0  0  0  0  0  0  0  0  0  0  0
    3.4075   -0.4181    0.8658 H   0  0  0  0  0  0  0  0  0  0  0  0
    0.4630   -1.5570   -0.1121 H   0  0  0  0  0  0  0  0  0  0  0  0
    0.5933   -1.2033    1.6253 H   0  0  0  0  0  0  0  0  0  0  0  0
   -1.4945    0.0640    1.5685 H   0  0  0  0  0  0  0  0  0  0  0  0
   -2.0872   -1.9620    1.8945 H   0  0  0  0  0  0  0  0  0  0  0  0
   -2.8694   -0.0323   -0.5059 H   0  0  0  0  0  0  0  0  0  0  0  0
   -1.7265   -0.3610   -2.4344 H   0  0  0  0  0  0  0  0  0  0  0  0
  1  2  2  0
  2  3  1  0
  3  4  1  0
  4  5  1  0
  5  6  1  0
  4  7  1  0
  7  8  1  0
  8  9  1  0
  8 10  1  0
 10 11  1  0
 10  2  1  0
  3 12  1  0
  4 13  1  1
  5 14  1  0
  5 15  1  0
  6 16  1  0
  7 17  1  0
  7 18  1  0
  8 19  1  1
  9 20  1  0
 10 21  1  1
 11 22  1  0
M  END
$$$$

     RDKit          3D

 22 22  0  0  0  0  0  0  0  0999 V2000
    1.9775    2.2911    0.3380 O   0  0  0  0  0  0  0  0  0  0  0  0
    1.2724    1.3521   -0.0832 C   0  0  0  0  0  0  0  0  0  0  0  0
   -0.1050    1.5585   -0.2904 N   0  0  0  0  0  0  0  0  0  0  0  0
   -0.9439    0.3852   -0.4568 C   0  0  2  0  0  0  0  0  0  0  0  0
   -2.3615    0.6726   -0.0601 C   0  0  0  0  0  0  0  0  0  0  0  0
   -3.1188   -0.4842   -0.2396 O   0  0  0  0  0  0  0  0  0  0  0  0
   -0.3831   -0.7324    0.3818 C   0  0  0  0  0  0  0  0  0  0  0  0
    0.9730   -1.1135   -0.1190 C   0  0  2  0  0  0  0  0  0  0  0  0
    1.5781   -2.0235    0.7684 O   0  0  0  0  0  0  0  0  0  0  0  0
    1.8874    0.0536   -0.3546 C   0  0  2  0  0  0  0  0  0  0  0  0
    3.0228   -0.0760    0.4462 O   0  0  0  0  0  0  0  0  0  0  0  0
   -0.5487    2.5015   -0.3299 H   0  0  0  0  0  0  0  0  0  0  0  0
   -0.9258    0.0475   -1.5096 H   0  0  0  0  0  0  0  0  0  0  0  0
   -2.7650    1.5067   -0.6836 H   0  0  0  0  0  0  0  0  0  0  0  0
   -2.4262    1.0066    0.9974 H   0  0  0  0  0  0  0  0  0  0  0  0
   -3.6198   -0.6992    0.5908 H   0  0  0  0  0  0  0  0  0  0  0  0
   -1.0610   -1.6045    0.2663 H   0  0  0  0  0  0  0  0  0  0  0  0
   -0.3925   -0.4773    1.4719 H   0  0  0  0  0  0  0  0  0  0  0  0
    0.8549   -1.6572   -1.0746 H   0  0  0  0  0  0  0  0  0  0  0  0
    0.9838   -2.8008    0.9009 H   0  0  0  0  0  0  0  0  0  0  0  0
    2.2521    0.0782   -1.4206 H   0  0  0  0  0  0  0  0  0  0  0  0
    3.8494    0.2151   -0.0482 H   0  0  0  0  0  0  0  0  0  0  0  0
  1  2  2  0
  2  3  1  0
  3  4  1  0
  4  5  1  0
  5  6  1  0
  4  7  1  0
  7  8  1  0
  8  9  1  0
  8 10  1  0
 10 11  1  0
 10  2  1  0
  3 12  1  0
  4 13  1  6
  5 14  1  0
  5 15  1  0
  6 16  1  0
  7 17  1  0
  7 18  1  0
  8 19  1  6
  9 20  1  0
 10 21  1  6
 11 22  1  0
M  END
$$$$

     RDKit          3D

 22 22  0  0  0  0  0  0  0  0999 V2000
   -1.9504   -1.8100    1.4368 O   0  0  0  0  0  0  0  0  0  0  0  0
   -1.2299   -1.1163    0.6946 C   0  0  0  0  0  0  0  0  0  0  0  0
    0.1812   -1.1876    0.7497 N   0  0  0  0  0  0  0  0  0  0  0  0
    0.8773   -0.5239   -0.3597 C   0  0  2  0  0  0  0  0  0  0  0  0
    2.3536   -0.7454   -0.2784 C   0  0  0  0  0  0  0  0  0  0  0  0
    2.9377   -0.2757    0.8651 O   0  0  0  0  0  0  0  0  0  0  0  0
    0.4658    0.9057   -0.4104 C   0  0  0  0  0  0  0  0  0  0  0  0
   -0.9992    1.0845   -0.2433 C   0  0  2  0  0  0  0  0  0  0  0  0
   -1.3171    1.7315    0.9713 O   0  0  0  0  0  0  0  0  0  0  0  0
   -1.8144   -0.1784   -0.2868 C   0  0  2  0  0  0  0  0  0  0  0  0
   -3.1310    0.1572    0.0244 O   0  0  0  0  0  0  0  0  0  0  0  0
    0.6556   -1.6745    1.5209 H   0  0  0  0  0  0  0  0  0  0  0  0
    0.5038   -1.0308   -1.2790 H   0  0  0  0  0  0  0  0  0  0  0  0
    2.5237   -1.8495   -0.3159 H   0  0  0  0  0  0  0  0  0  0  0  0
    2.8335   -0.3254   -1.1650 H   0  0  0  0  0  0  0  0  0  0  0  0
    3.1740    0.6698    0.8637 H   0  0  0  0  0  0  0  0  0  0  0  0
    0.9710    1.4429    0.4416 H   0  0  0  0  0  0  0  0  0  0  0  0
    0.8638    1.3438   -1.3527 H   0  0  0  0  0  0  0  0  0  0  0  0
   -1.3951    1.7771   -1.0384 H   0  0  0  0  0  0  0  0  0  0  0  0
   -0.9806    2.6634    0.9641 H   0  0  0  0  0  0  0  0  0  0  0  0
   -1.8040   -0.5994   -1.3241 H   0  0  0  0  0  0  0  0  0  0  0  0
   -3.7194   -0.4590   -0.4784 H   0  0  0  0  0  0  0  0  0  0  0  0
  1  2  2  0
  2  3  1  0
  3  4  1  0
  4  5  1  0
  5  6  1  0
  4  7  1  0
  7  8  1  0
  8  9  1  0
  8 10  1  0
 10 11  1  0
 10  2  1  0
  3 12  1  0
  4 13  1  6
  5 14  1  0
  5 15  1  0
  6 16  1  0
  7 17  1  0
  7 18  1  0
  8 19  1  6
  9 20  1  0
 10 21  1  6
 11 22  1  0
M  END
$$$$

     RDKit          3D

 22 22  0  0  0  0  0  0  0  0999 V2000
   -1.9594    2.3651    0.0460 O   0  0  0  0  0  0  0  0  0  0  0  0
   -1.2276    1.3500    0.2510 C   0  0  0  0  0  0  0  0  0  0  0  0
    0.1810    1.4915    0.2385 N   0  0  0  0  0  0  0  0  0  0  0  0
    0.9668    0.2859    0.3591 C   0  0  2  0  0  0  0  0  0  0  0  0
    2.3819    0.5175   -0.1165 C   0  0  0  0  0  0  0  0  0  0  0  0
    3.0806   -0.6624    0.0218 O   0  0  0  0  0  0  0  0  0  0  0  0
    0.2724   -0.7834   -0.4516 C   0  0  0  0  0  0  0  0  0  0  0  0
   -1.0341   -1.1247    0.1905 C   0  0  2  0  0  0  0  0  0  0  0  0
   -1.7598   -2.0296   -0.5862 O   0  0  0  0  0  0  0  0  0  0  0  0
   -1.9021    0.0451    0.4972 C   0  0  2  0  0  0  0  0  0  0  0  0
   -3.0648    0.0447   -0.2745 O   0  0  0  0  0  0  0  0  0  0  0  0
    0.6187    2.4240    0.1464 H   0  0  0  0  0  0  0  0  0  0  0  0
    1.0098   -0.0429    1.4357 H   0  0  0  0  0  0  0  0  0  0  0  0
    2.8361    1.2687    0.5663 H   0  0  0  0  0  0  0  0  0  0  0  0
    2.3969    0.8140   -1.1668 H   0  0  0  0  0  0  0  0  0  0  0  0
    3.7303   -0.6246    0.7752 H   0  0  0  0  0  0  0  0  0  0  0  0
    0.9177   -1.6833   -0.4134 H   0  0  0  0  0  0  0  0  0  0  0  0
    0.1618   -0.4234   -1.4857 H   0  0  0  0  0  0  0  0  0  0  0  0
   -0.8095   -1.6545    1.1566 H   0  0  0  0  0  0  0  0  0  0  0  0
   -1.7205   -1.7856   -1.5455 H   0  0  0  0  0  0  0  0  0  0  0  0
   -2.2202    0.0732    1.5756 H   0  0  0  0  0  0  0  0  0  0  0  0
   -2.8558    0.1347   -1.2198 H   0  0  0  0  0  0  0  0  0  0  0  0
  1  2  2  0
  2  3  1  0
  3  4  1  0
  4  5  1  0
  5  6  1  0
  4  7  1  0
  7  8  1  0
  8  9  1  0
  8 10  1  0
 10 11  1  0
 10  2  1  0
  3 12  1  0
  4 13  1  1
  5 14  1  0
  5 15  1  0
  6 16  1  0
  7 17  1  0
  7 18  1  0
  8 19  1  1
  9 20  1  0
 10 21  1  1
 11 22  1  0
M  END
$$$$

     RDKit          3D

 22 22  0  0  0  0  0  0  0  0999 V2000
   -1.1209    2.3319    1.2763 O   0  0  0  0  0  0  0  0  0  0  0  0
   -0.6777    1.1837    0.9647 C   0  0  0  0  0  0  0  0  0  0  0  0
    0.7028    0.9775    0.6933 N   0  0  0  0  0  0  0  0  0  0  0  0
    1.1213   -0.2161   -0.0097 C   0  0  2  0  0  0  0  0  0  0  0  0
    2.3504    0.1054   -0.8313 C   0  0  0  0  0  0  0  0  0  0  0  0
    3.3747    0.5391    0.0068 O   0  0  0  0  0  0  0  0  0  0  0  0
   -0.0159   -0.5902   -0.9459 C   0  0  0  0  0  0  0  0  0  0  0  0
   -1.2538   -0.9486   -0.1894 C   0  0  2  0  0  0  0  0  0  0  0  0
   -2.2881   -1.1015   -1.1144 O   0  0  0  0  0  0  0  0  0  0  0  0
   -1.6221    0.0434    0.8847 C   0  0  2  0  0  0  0  0  0  0  0  0
   -2.9250    0.5278    0.6883 O   0  0  0  0  0  0  0  0  0  0  0  0
    1.3690    1.7096    1.0186 H   0  0  0  0  0  0  0  0  0  0  0  0
    1.3237   -1.0611    0.6853 H   0  0  0  0  0  0  0  0  0  0  0  0
    2.6794   -0.7343   -1.4497 H   0  0  0  0  0  0  0  0  0  0  0  0
    2.0424    0.9207   -1.5467 H   0  0  0  0  0  0  0  0  0  0  0  0
    3.0529    0.5607    0.9312 H   0  0  0  0  0  0  0  0  0  0  0  0
    0.2929   -1.4594   -1.5413 H   0  0  0  0  0  0  0  0  0  0  0  0
   -0.1822    0.2693   -1.6237 H   0  0  0  0  0  0  0  0  0  0  0  0
   -1.0677   -1.9396    0.2988 H   0  0  0  0  0  0  0  0  0  0  0  0
   -2.5300   -2.0640   -1.2392 H   0  0  0  0  0  0  0  0  0  0  0  0
   -1.6558   -0.4599    1.8954 H   0  0  0  0  0  0  0  0  0  0  0  0
   -2.9702    1.4054    1.1481 H   0  0  0  0  0  0  0  0  0  0  0  0
  1  2  2  0
  2  3  1  0
  3  4  1  0
  4  5  1  0
  5  6  1  0
  4  7  1  0
  7  8  1  0
  8  9  1  0
  8 10  1  0
 10 11  1  0
 10  2  1  0
  3 12  1  0
  4 13  1  1
  5 14  1  0
  5 15  1  0
  6 16  1  0
  7 17  1  0
  7 18  1  0
  8 19  1  1
  9 20  1  0
 10 21  1  1
 11 22  1  0
M  END
$$$$

     RDKit          3D

 22 22  0  0  0  0  0  0  0  0999 V2000
    1.0538   -1.5817    2.5312 O   0  0  0  0  0  0  0  0  0  0  0  0
    0.7350   -0.9210    1.5277 C   0  0  0  0  0  0  0  0  0  0  0  0
   -0.5688   -1.0077    0.9700 N   0  0  0  0  0  0  0  0  0  0  0  0
   -0.9814    0.1115    0.1231 C   0  0  2  0  0  0  0  0  0  0  0  0
   -2.2975   -0.2911   -0.5150 C   0  0  0  0  0  0  0  0  0  0  0  0
   -3.2495   -0.5373    0.4914 O   0  0  0  0  0  0  0  0  0  0  0  0
    0.0145    0.3674   -0.9577 C   0  0  0  0  0  0  0  0  0  0  0  0
    1.4313    0.2024   -0.5740 C   0  0  2  0  0  0  0  0  0  0  0  0
    2.0531   -0.8359   -1.3036 O   0  0  0  0  0  0  0  0  0  0  0  0
    1.7047   -0.0105    0.8667 C   0  0  2  0  0  0  0  0  0  0  0  0
    2.9626   -0.6512    0.9696 O   0  0  0  0  0  0  0  0  0  0  0  0
   -1.1641   -1.8250    1.1701 H   0  0  0  0  0  0  0  0  0  0  0  0
   -1.1548    1.0224    0.7371 H   0  0  0  0  0  0  0  0  0  0  0  0
   -2.1599   -1.2291   -1.0934 H   0  0  0  0  0  0  0  0  0  0  0  0
   -2.6737    0.4952   -1.2021 H   0  0  0  0  0  0  0  0  0  0  0  0
   -3.8603    0.2276    0.5801 H   0  0  0  0  0  0  0  0  0  0  0  0
   -0.2235    1.3736   -1.4006 H   0  0  0  0  0  0  0  0  0  0  0  0
   -0.2088   -0.3535   -1.7980 H   0  0  0  0  0  0  0  0  0  0  0  0
    1.9849    1.1328   -0.8909 H   0  0  0  0  0  0  0  0  0  0  0  0
    1.3657   -1.3714   -1.7784 H   0  0  0  0  0  0  0  0  0  0  0  0
    1.8226    0.9376    1.4380 H   0  0  0  0  0  0  0  0  0  0  0  0
    3.4141   -0.7037    0.1089 H   0  0  0  0  0  0  0  0  0  0  0  0
  1  2  2  0
  2  3  1  0
  3  4  1  0
  4  5  1  0
  5  6  1  0
  4  7  1  0
  7  8  1  0
  8  9  1  0
  8 10  1  0
 10 11  1  0
 10  2  1  0
  3 12  1  0
  4 13  1  1
  5 14  1  0
  5 15  1  0
  6 16  1  0
  7 17  1  0
  7 18  1  0
  8 19  1  6
  9 20  1  0
 10 21  1  1
 11 22  1  0
M  END
$$$$
