
     RDKit          3D

 25 26  0  0  0  0  0  0  0  0999 V2000
    4.2055    0.3812    1.3509 N   0  0  0  0  0  0  0  0  0  0  0  0
    2.9506    0.1047    0.7247 C   0  0  0  0  0  0  0  0  0  0  0  0
    1.8075    0.1215    1.4454 N   0  0  0  0  0  0  0  0  0  0  0  0
    0.6204   -0.1406    0.8501 C   0  0  0  0  0  0  0  0  0  0  0  0
    0.5378   -0.4333   -0.5103 C   0  0  0  0  0  0  0  0  0  0  0  0
    1.7157   -0.4441   -1.2218 C   0  0  0  0  0  0  0  0  0  0  0  0
    1.6521   -0.7069   -2.4493 O   0  0  0  0  0  0  0  0  0  0  0  0
    2.8745   -0.1779   -0.5910 N   0  0  0  0  0  0  0  0  0  0  0  0
   -0.7273   -0.6987   -1.0773 N   0  0  0  0  0  0  0  0  0  0  0  0
   -1.9911   -0.4360   -0.4436 C   0  0  2  0  0  0  0  0  0  0  0  0
   -2.7296    0.5736   -1.2810 C   0  0  0  0  0  0  0  0  0  0  0  0
   -3.9416    0.8366   -0.6891 O   0  0  0  0  0  0  0  0  0  0  0  0
   -1.8888    0.0584    0.9491 C   0  0  0  0  0  0  0  0  0  0  0  0
   -0.6099   -0.1351    1.5649 N   0  0  0  0  0  0  0  0  0  0  0  0
    4.4348   -0.1116    2.2252 H   0  0  0  0  0  0  0  0  0  0  0  0
    4.8996    1.0560    0.9673 H   0  0  0  0  0  0  0  0  0  0  0  0
    3.7608   -0.1957   -1.1730 H   0  0  0  0  0  0  0  0  0  0  0  0
   -0.7700   -1.1236   -2.0420 H   0  0  0  0  0  0  0  0  0  0  0  0
   -2.5787   -1.3778   -0.4490 H   0  0  0  0  0  0  0  0  0  0  0  0
   -2.8254    0.2621   -2.3427 H   0  0  0  0  0  0  0  0  0  0  0  0
   -2.1143    1.5184   -1.2429 H   0  0  0  0  0  0  0  0  0  0  0  0
   -3.9114    0.5798    0.2577 H   0  0  0  0  0  0  0  0  0  0  0  0
   -2.6904   -0.3976    1.5849 H   0  0  0  0  0  0  0  0  0  0  0  0
   -2.1030    1.1667    0.9960 H   0  0  0  0  0  0  0  0  0  0  0  0
   -0.5778   -0.2802    2.5968 H   0  0  0  0  0  0  0  0  0  0  0  0
  1  2  1  0
  2  3  2  0
  3  4  1  0
  4  5  2  0
  5  6  1  0
  6  7  2  0
  6  8  1  0
  5  9  1  0
  9 10  1  0
 10 11  1  0
 11 12  1  0
 10 13  1  0
 13 14  1  0
  8  2  1  0
 14  4  1  0
  1 15  1  0
  1 16  1  0
  8 17  1  0
  9 18  1  0
 10 19  1  1
 11 20  1  0
 11 21  1  0
 12 22  1  0
 13 23  1  0
 13 24  1  0
 14 25  1  0
M  END
$$$$

     RDKit          3D

 25 26  0  0  0  0  0  0  0  0999 V2000
    4.4409    0.0364   -0.0004 N   0  0  0  0  0  0  0  0  0  0  0  0
    3.0337    0.1628   -0.1576 C   0  0  0  0  0  0  0  0  0  0  0  0
    2.2216   -0.8715    0.1283 N   0  0  0  0  0  0  0  0  0  0  0  0
    0.8914   -0.7008   -0.0378 C   0  0  0  0  0  0  0  0  0  0  0  0
    0.3443    0.4825   -0.4846 C   0  0  0  0  0  0  0  0  0  0  0  0
    1.2177    1.5122   -0.7639 C   0  0  0  0  0  0  0  0  0  0  0  0
    0.7500    2.5858   -1.1670 O   0  0  0  0  0  0  0  0  0  0  0  0
    2.5464    1.3284   -0.5935 N   0  0  0  0  0  0  0  0  0  0  0  0
   -1.0777    0.6191   -0.6465 N   0  0  0  0  0  0  0  0  0  0  0  0
   -1.9708   -0.4715   -0.4221 C   0  0  2  0  0  0  0  0  0  0  0  0
   -3.3057   -0.0376    0.1414 C   0  0  0  0  0  0  0  0  0  0  0  0
   -3.1989    0.6046    1.3466 O   0  0  0  0  0  0  0  0  0  0  0  0
   -1.3629   -1.4332    0.5884 C   0  0  0  0  0  0  0  0  0  0  0  0
    0.0026   -1.7687    0.2533 N   0  0  0  0  0  0  0  0  0  0  0  0
    5.0701    0.8451    0.0237 H   0  0  0  0  0  0  0  0  0  0  0  0
    4.8645   -0.9113    0.0955 H   0  0  0  0  0  0  0  0  0  0  0  0
    3.1695    2.1380   -0.8184 H   0  0  0  0  0  0  0  0  0  0  0  0
   -1.4063    1.5697   -0.9386 H   0  0  0  0  0  0  0  0  0  0  0  0
   -2.1149   -1.0539   -1.3516 H   0  0  0  0  0  0  0  0  0  0  0  0
   -3.7755    0.6599   -0.6001 H   0  0  0  0  0  0  0  0  0  0  0  0
   -3.9796   -0.9096    0.2579 H   0  0  0  0  0  0  0  0  0  0  0  0
   -3.3204    1.5826    1.3048 H   0  0  0  0  0  0  0  0  0  0  0  0
   -1.3501   -0.9028    1.5569 H   0  0  0  0  0  0  0  0  0  0  0  0
   -2.0225   -2.3069    0.6817 H   0  0  0  0  0  0  0  0  0  0  0  0
    0.3327   -2.7594    0.2238 H   0  0  0  0  0  0  0  0  0  0  0  0
  1  2  1  0
  2  3  2  0
  3  4  1  0
  4  5  2  0
  5  6  1  0
  6  7  2  0
  6  8  1  0
  5  9  1  0
  9 10  1  0
 10 11  1  0
 11 12  1  0
 10 13  1  0
 13 14  1  0
  8  2  1  0
 14  4  1  0
  1 15  1  0
  1 16  1  0
  8 17  1  0
  9 18  1  0
 10 19  1  6
 11 20  1  0
 11 21  1  0
 12 22  1  0
 13 23  1  0
 13 24  1  0
 14 25  1  0
M  END
$$$$

     RDKit          3D

 25 26  0  0  0  0  0  0  0  0999 V2000
    4.4493    0.3762   -0.1004 N   0  0  0  0  0  0  0  0  0  0  0  0
    3.0847    0.0416    0.0515 C   0  0  0  0  0  0  0  0  0  0  0  0
    2.1180    0.9480   -0.2023 N   0  0  0  0  0  0  0  0  0  0  0  0
    0.8187    0.6315   -0.0583 C   0  0  0  0  0  0  0  0  0  0  0  0
    0.4527   -0.6381    0.3554 C   0  0  0  0  0  0  0  0  0  0  0  0
    1.4468   -1.5864    0.6216 C   0  0  0  0  0  0  0  0  0  0  0  0
    1.1051   -2.7286    0.9942 O   0  0  0  0  0  0  0  0  0  0  0  0
    2.7165   -1.1981    0.4559 N   0  0  0  0  0  0  0  0  0  0  0  0
   -0.9168   -0.9700    0.5071 N   0  0  0  0  0  0  0  0  0  0  0  0
   -1.8953    0.0605    0.5084 C   0  0  2  0  0  0  0  0  0  0  0  0
   -3.2225   -0.5136    0.0417 C   0  0  0  0  0  0  0  0  0  0  0  0
   -4.1815    0.5074    0.0456 O   0  0  0  0  0  0  0  0  0  0  0  0
   -1.4925    1.1205   -0.4427 C   0  0  0  0  0  0  0  0  0  0  0  0
   -0.1550    1.6065   -0.3327 N   0  0  0  0  0  0  0  0  0  0  0  0
    4.8173    0.7106   -1.0047 H   0  0  0  0  0  0  0  0  0  0  0  0
    5.0933    0.2869    0.7024 H   0  0  0  0  0  0  0  0  0  0  0  0
    3.4892   -1.8899    0.6484 H   0  0  0  0  0  0  0  0  0  0  0  0
   -1.1681   -1.9684    0.6140 H   0  0  0  0  0  0  0  0  0  0  0  0
   -2.0628    0.4794    1.5139 H   0  0  0  0  0  0  0  0  0  0  0  0
   -3.5302   -1.3763    0.6417 H   0  0  0  0  0  0  0  0  0  0  0  0
   -3.0948   -0.8076   -1.0321 H   0  0  0  0  0  0  0  0  0  0  0  0
   -3.9281    1.2187    0.7151 H   0  0  0  0  0  0  0  0  0  0  0  0
   -2.2933    1.8487   -0.7745 H   0  0  0  0  0  0  0  0  0  0  0  0
   -1.7285    1.2538   -0.8085 H   0  0  0  0  0  0  0  0  0  0  0  0
    0.0775    2.5865   -0.4429 H   0  0  0  0  0  0  0  0  0  0  0  0
  1  2  1  0
  2  3  2  0
  3  4  1  0
  4  5  2  0
  5  6  1  0
  6  7  2  0
  6  8  1  0
  5  9  1  0
  9 10  1  0
 10 11  1  0
 11 12  1  0
 10 13  1  0
 13 14  1  0
  8  2  1  0
 14  4  1  0
  1 15  1  0
  1 16  1  0
  8 17  1  0
  9 18  1  0
 10 19  1  1
 11 20  1  0
 11 21  1  0
 12 22  1  0
 13 23  1  0
 13 24  1  0
 14 25  1  0
M  END
$$$$

     RDKit          3D

 25 26  0  0  0  0  0  0  0  0999 V2000
    4.4393    0.4343    0.2742 N   0  0  0  0  0  0  0  0  0  0  0  0
    3.0815    0.0717    0.2116 C   0  0  0  0  0  0  0  0  0  0  0  0
    2.1087    1.0025    0.2541 N   0  0  0  0  0  0  0  0  0  0  0  0
    0.7946    0.6579    0.1941 C   0  0  0  0  0  0  0  0  0  0  0  0
    0.4475   -0.6735    0.0872 C   0  0  0  0  0  0  0  0  0  0  0  0
    1.4487   -1.6376    0.0430 C   0  0  0  0  0  0  0  0  0  0  0  0
    1.1237   -2.8480   -0.0545 O   0  0  0  0  0  0  0  0  0  0  0  0
    2.7206   -1.2194    0.1073 N   0  0  0  0  0  0  0  0  0  0  0  0
   -0.9296   -1.0204    0.0253 N   0  0  0  0  0  0  0  0  0  0  0  0
   -1.9298   -0.0233    0.4213 C   0  0  2  0  0  0  0  0  0  0  0  0
   -3.3100   -0.4364   -0.0007 C   0  0  0  0  0  0  0  0  0  0  0  0
   -4.1987    0.5381    0.3991 O   0  0  0  0  0  0  0  0  0  0  0  0
   -1.5291    1.2636   -0.2911 C   0  0  0  0  0  0  0  0  0  0  0  0
   -0.2348    1.6407    0.2389 N   0  0  0  0  0  0  0  0  0  0  0  0
    4.7204    1.2781    0.8205 H   0  0  0  0  0  0  0  0  0  0  0  0
    5.1829   -0.1177   -0.2125 H   0  0  0  0  0  0  0  0  0  0  0  0
    3.4813   -1.9577    0.0733 H   0  0  0  0  0  0  0  0  0  0  0  0
   -1.2134   -1.9643   -0.2955 H   0  0  0  0  0  0  0  0  0  0  0  0
   -1.8809    0.0730    1.5055 H   0  0  0  0  0  0  0  0  0  0  0  0
   -3.5851   -1.3770    0.4861 H   0  0  0  0  0  0  0  0  0  0  0  0
   -3.3052   -0.5842   -1.1056 H   0  0  0  0  0  0  0  0  0  0  0  0
   -3.8111    1.2807    0.8910 H   0  0  0  0  0  0  0  0  0  0  0  0
   -2.2380    2.0726   -0.1386 H   0  0  0  0  0  0  0  0  0  0  0  0
   -1.3730    0.9835   -1.3609 H   0  0  0  0  0  0  0  0  0  0  0  0
   -0.0106    2.5628    0.6423 H   0  0  0  0  0  0  0  0  0  0  0  0
  1  2  1  0
  2  3  2  0
  3  4  1  0
  4  5  2  0
  5  6  1  0
  6  7  2  0
  6  8  1  0
  5  9  1  0
  9 10  1  0
 10 11  1  0
 11 12  1  0
 10 13  1  0
 13 14  1  0
  8  2  1  0
 14  4  1  0
  1 15  1  0
  1 16  1  0
  8 17  1  0
  9 18  1  0
 10 19  1  1
 11 20  1  0
 11 21  1  0
 12 22  1  0
 13 23  1  0
 13 24  1  0
 14 25  1  0
M  END
$$$$

     RDKit          3D

 25 26  0  0  0  0  0  0  0  0999 V2000
    4.4281   -0.5311    0.4739 N   0  0  0  0  0  0  0  0  0  0  0  0
    3.1032   -0.0627    0.3859 C   0  0  0  0  0  0  0  0  0  0  0  0
    2.1081   -0.9443    0.6008 N   0  0  0  0  0  0  0  0  0  0  0  0
    0.7986   -0.6002    0.5409 C   0  0  0  0  0  0  0  0  0  0  0  0
    0.4992    0.7131    0.2458 C   0  0  0  0  0  0  0  0  0  0  0  0
    1.5120    1.6338    0.0217 C   0  0  0  0  0  0  0  0  0  0  0  0
    1.2046    2.8062   -0.2410 O   0  0  0  0  0  0  0  0  0  0  0  0
    2.7890    1.2198    0.0981 N   0  0  0  0  0  0  0  0  0  0  0  0
   -0.8748    1.0745    0.1827 N   0  0  0  0  0  0  0  0  0  0  0  0
   -1.8315    0.0445   -0.1133 C   0  0  2  0  0  0  0  0  0  0  0  0
   -3.2566    0.5040    0.1958 C   0  0  0  0  0  0  0  0  0  0  0  0
   -4.0780   -0.5967   -0.1399 O   0  0  0  0  0  0  0  0  0  0  0  0
   -1.6070   -1.2066    0.7072 C   0  0  0  0  0  0  0  0  0  0  0  0
   -0.2247   -1.5600    0.7742 N   0  0  0  0  0  0  0  0  0  0  0  0
    4.9227   -0.8267   -0.3772 H   0  0  0  0  0  0  0  0  0  0  0  0
    4.8955   -0.5758    1.3881 H   0  0  0  0  0  0  0  0  0  0  0  0
    3.5947    1.8920   -0.0664 H   0  0  0  0  0  0  0  0  0  0  0  0
   -1.1281    2.0756    0.3546 H   0  0  0  0  0  0  0  0  0  0  0  0
   -1.8097   -0.1724   -1.2040 H   0  0  0  0  0  0  0  0  0  0  0  0
   -3.3281    0.6428    1.2872 H   0  0  0  0  0  0  0  0  0  0  0  0
   -3.5539    1.3770   -0.3880 H   0  0  0  0  0  0  0  0  0  0  0  0
   -4.0251   -1.2599    0.6092 H   0  0  0  0  0  0  0  0  0  0  0  0
   -2.1634   -2.0286    0.1742 H   0  0  0  0  0  0  0  0  0  0  0  0
   -1.9930   -1.0697    1.7319 H   0  0  0  0  0  0  0  0  0  0  0  0
    0.0183   -2.5486    1.0006 H   0  0  0  0  0  0  0  0  0  0  0  0
  1  2  1  0
  2  3  2  0
  3  4  1  0
  4  5  2  0
  5  6  1  0
  6  7  2  0
  6  8  1  0
  5  9  1  0
  9 10  1  0
 10 11  1  0
 11 12  1  0
 10 13  1  0
 13 14  1  0
  8  2  1  0
 14  4  1  0
  1 15  1  0
  1 16  1  0
  8 17  1  0
  9 18  1  0
 10 19  1  6
 11 20  1  0
 11 21  1  0
 12 22  1  0
 13 23  1  0
 13 24  1  0
 14 25  1  0
M  END
$$$$

     RDKit          3D

 25 26  0  0  0  0  0  0  0  0999 V2000
    4.4606   -0.2899   -0.4986 N   0  0  0  0  0  0  0  0  0  0  0  0
    3.0844   -0.0268   -0.2166 C   0  0  0  0  0  0  0  0  0  0  0  0
    2.1388   -0.8085   -0.7698 N   0  0  0  0  0  0  0  0  0  0  0  0
    0.8245   -0.5843   -0.5215 C   0  0  0  0  0  0  0  0  0  0  0  0
    0.4461    0.4518    0.3040 C   0  0  0  0  0  0  0  0  0  0  0  0
    1.4517    1.2339    0.8541 C   0  0  0  0  0  0  0  0  0  0  0  0
    1.0716    2.1733    1.6046 O   0  0  0  0  0  0  0  0  0  0  0  0
    2.7525    0.9989    0.5981 N   0  0  0  0  0  0  0  0  0  0  0  0
   -0.9360    0.6758    0.5559 N   0  0  0  0  0  0  0  0  0  0  0  0
   -1.8862    0.1351   -0.3667 C   0  0  2  0  0  0  0  0  0  0  0  0
   -3.3039    0.3367    0.1017 C   0  0  0  0  0  0  0  0  0  0  0  0
   -3.5260   -0.2750    1.3195 O   0  0  0  0  0  0  0  0  0  0  0  0
   -1.5529   -1.3254   -0.5741 C   0  0  0  0  0  0  0  0  0  0  0  0
   -0.1970   -1.3909   -1.0897 N   0  0  0  0  0  0  0  0  0  0  0  0
    4.8550   -1.1719   -0.1071 H   0  0  0  0  0  0  0  0  0  0  0  0
    5.0685    0.3428   -1.0617 H   0  0  0  0  0  0  0  0  0  0  0  0
    3.4926    1.5831    1.0097 H   0  0  0  0  0  0  0  0  0  0  0  0
   -1.1674    1.2276    1.4095 H   0  0  0  0  0  0  0  0  0  0  0  0
   -1.7544    0.6536   -1.3381 H   0  0  0  0  0  0  0  0  0  0  0  0
   -3.9991    0.0109   -0.6940 H   0  0  0  0  0  0  0  0  0  0  0  0
   -3.4515    1.4276    0.2277 H   0  0  0  0  0  0  0  0  0  0  0  0
   -4.0975    0.3031    1.9002 H   0  0  0  0  0  0  0  0  0  0  0  0
   -1.5350   -1.8014    0.4439 H   0  0  0  0  0  0  0  0  0  0  0  0
   -2.2698   -1.8444   -1.2062 H   0  0  0  0  0  0  0  0  0  0  0  0
    0.0304   -2.0358   -1.8847 H   0  0  0  0  0  0  0  0  0  0  0  0
  1  2  1  0
  2  3  2  0
  3  4  1  0
  4  5  2  0
  5  6  1  0
  6  7  2  0
  6  8  1  0
  5  9  1  0
  9 10  1  0
 10 11  1  0
 11 12  1  0
 10 13  1  0
 13 14  1  0
  8  2  1  0
 14  4  1  0
  1 15  1  0
  1 16  1  0
  8 17  1  0
  9 18  1  0
 10 19  1  6
 11 20  1  0
 11 21  1  0
 12 22  1  0
 13 23  1  0
 13 24  1  0
 14 25  1  0
M  END
$$$$

     RDKit          3D

 25 26  0  0  0  0  0  0  0  0999 V2000
   -4.3550   -0.3420    1.0755 N   0  0  0  0  0  0  0  0  0  0  0  0
   -3.0195   -0.1693    0.5606 C   0  0  0  0  0  0  0  0  0  0  0  0
   -1.9322   -0.3760    1.3209 N   0  0  0  0  0  0  0  0  0  0  0  0
   -0.6972   -0.1924    0.7640 C   0  0  0  0  0  0  0  0  0  0  0  0
   -0.5581    0.1975   -0.5528 C   0  0  0  0  0  0  0  0  0  0  0  0
   -1.6934    0.4013   -1.3061 C   0  0  0  0  0  0  0  0  0  0  0  0
   -1.5343    0.7542   -2.4959 O   0  0  0  0  0  0  0  0  0  0  0  0
   -2.8841    0.2104   -0.7216 N   0  0  0  0  0  0  0  0  0  0  0  0
    0.7522    0.3769   -1.0935 N   0  0  0  0  0  0  0  0  0  0  0  0
    1.8551    0.4675   -0.1789 C   0  0  2  0  0  0  0  0  0  0  0  0
    3.1498    0.3592   -0.9482 C   0  0  0  0  0  0  0  0  0  0  0  0
    4.2675    0.4362   -0.1488 O   0  0  0  0  0  0  0  0  0  0  0  0
    1.6941   -0.6869    0.8020 C   0  0  0  0  0  0  0  0  0  0  0  0
    0.4815   -0.4014    1.5388 N   0  0  0  0  0  0  0  0  0  0  0  0
   -4.9286    0.5168    1.2315 H   0  0  0  0  0  0  0  0  0  0  0  0
   -4.7655   -1.2536    1.2938 H   0  0  0  0  0  0  0  0  0  0  0  0
   -3.7405    0.3655   -1.2945 H   0  0  0  0  0  0  0  0  0  0  0  0
    0.8343    0.4323   -2.1304 H   0  0  0  0  0  0  0  0  0  0  0  0
    1.8765    1.3908    0.4112 H   0  0  0  0  0  0  0  0  0  0  0  0
    3.1701   -0.5616   -1.5820 H   0  0  0  0  0  0  0  0  0  0  0  0
    3.1746    1.2176   -1.6510 H   0  0  0  0  0  0  0  0  0  0  0  0
    4.3600   -0.4010    0.3884 H   0  0  0  0  0  0  0  0  0  0  0  0
    2.5749   -0.7969    1.4552 H   0  0  0  0  0  0  0  0  0  0  0  0
    1.4950   -1.6035    0.2023 H   0  0  0  0  0  0  0  0  0  0  0  0
    0.4227   -0.3415    2.5749 H   0  0  0  0  0  0  0  0  0  0  0  0
  1  2  1  0
  2  3  2  0
  3  4  1  0
  4  5  2  0
  5  6  1  0
  6  7  2  0
  6  8  1  0
  5  9  1  0
  9 10  1  0
 10 11  1  0
 11 12  1  0
 10 13  1  0
 13 14  1  0
  8  2  1  0
 14  4  1  0
  1 15  1  0
  1 16  1  0
  8 17  1  0
  9 18  1  0
 10 19  1  1
 11 20  1  0
 11 21  1  0
 12 22  1  0
 13 23  1  0
 13 24  1  0
 14 25  1  0
M  END
$$$$

     RDKit          3D

 25 26  0  0  0  0  0  0  0  0999 V2000
    4.1328    1.2889   -0.0423 N   0  0  0  0  0  0  0  0  0  0  0  0
    2.8885    0.6022   -0.0442 C   0  0  0  0  0  0  0  0  0  0  0  0
    1.7337    1.2407    0.2245 N   0  0  0  0  0  0  0  0  0  0  0  0
    0.5480    0.6163    0.2290 C   0  0  0  0  0  0  0  0  0  0  0  0
    0.5130   -0.7316   -0.0527 C   0  0  0  0  0  0  0  0  0  0  0  0
    1.7020   -1.3987   -0.3314 C   0  0  0  0  0  0  0  0  0  0  0  0
    1.6282   -2.6259   -0.5831 O   0  0  0  0  0  0  0  0  0  0  0  0
    2.8610   -0.7148   -0.3203 N   0  0  0  0  0  0  0  0  0  0  0  0
   -0.7392   -1.3856   -0.0469 N   0  0  0  0  0  0  0  0  0  0  0  0
   -2.0041   -0.7249    0.1642 C   0  0  2  0  0  0  0  0  0  0  0  0
   -2.6571   -0.3211   -1.1482 C   0  0  0  0  0  0  0  0  0  0  0  0
   -3.8709    0.3069   -0.8111 O   0  0  0  0  0  0  0  0  0  0  0  0
   -1.8275    0.5193    0.9879 C   0  0  0  0  0  0  0  0  0  0  0  0
   -0.6782    1.2776    0.5109 N   0  0  0  0  0  0  0  0  0  0  0  0
    4.4985    1.6322   -0.9372 H   0  0  0  0  0  0  0  0  0  0  0  0
    4.6172    1.4151    0.8513 H   0  0  0  0  0  0  0  0  0  0  0  0
    3.7531   -1.2511   -0.5370 H   0  0  0  0  0  0  0  0  0  0  0  0
   -0.7144   -2.4354   -0.2120 H   0  0  0  0  0  0  0  0  0  0  0  0
   -2.6711   -1.4355    0.7170 H   0  0  0  0  0  0  0  0  0  0  0  0
   -2.8642   -1.2217   -1.7616 H   0  0  0  0  0  0  0  0  0  0  0  0
   -1.9948    0.3627   -1.6804 H   0  0  0  0  0  0  0  0  0  0  0  0
   -3.7568    1.2765   -0.9382 H   0  0  0  0  0  0  0  0  0  0  0  0
   -2.7104    1.1752    0.9284 H   0  0  0  0  0  0  0  0  0  0  0  0
   -1.6797    0.2249    2.0498 H   0  0  0  0  0  0  0  0  0  0  0  0
   -0.7075    2.3078    0.3613 H   0  0  0  0  0  0  0  0  0  0  0  0
  1  2  1  0
  2  3  2  0
  3  4  1  0
  4  5  2  0
  5  6  1  0
  6  7  2  0
  6  8  1  0
  5  9  1  0
  9 10  1  0
 10 11  1  0
 11 12  1  0
 10 13  1  0
 13 14  1  0
  8  2  1  0
 14  4  1  0
  1 15  1  0
  1 16  1  0
  8 17  1  0
  9 18  1  0
 10 19  1  1
 11 20  1  0
 11 21  1  0
 12 22  1  0
 13 23  1  0
 13 24  1  0
 14 25  1  0
M  END
$$$$
