
     RDKit          3D

 18 19  0  0  0  0  0  0  0  0999 V2000
    2.5898    0.0231    0.1056 O   0  0  0  0  0  0  0  0  0  0  0  0
    1.2667    0.0274    0.6007 C   0  0  2  0  0  0  0  0  0  0  0  0
    0.6367   -1.3050    0.3676 C   0  0  0  0  0  0  0  0  0  0  0  0
   -0.7918   -1.2616   -0.0699 C   0  0  0  0  0  0  0  0  0  0  0  0
   -1.4739   -0.0026    0.1955 C   0  0  0  0  0  0  0  0  0  0  0  0
   -2.7699    0.2595    0.4828 N   0  0  0  0  0  0  0  0  0  0  0  0
   -2.9035    1.5487    0.6409 N   0  0  0  0  0  0  0  0  0  0  0  0
   -1.7023    2.0956    0.4551 N   0  0  0  0  0  0  0  0  0  0  0  0
   -0.8193    1.1744    0.1837 N   0  0  0  0  0  0  0  0  0  0  0  0
    0.5745    1.1647   -0.0981 C   0  0  0  0  0  0  0  0  0  0  0  0
    2.4744    0.0908   -0.8945 H   0  0  0  0  0  0  0  0  0  0  0  0
    1.3522    0.2899    1.6757 H   0  0  0  0  0  0  0  0  0  0  0  0
    0.7244   -1.8901    1.3070 H   0  0  0  0  0  0  0  0  0  0  0  0
    1.2247   -1.8700   -0.3923 H   0  0  0  0  0  0  0  0  0  0  0  0
   -0.8808   -1.4845   -1.1724 H   0  0  0  0  0  0  0  0  0  0  0  0
   -1.3430   -2.0830    0.4334 H   0  0  0  0  0  0  0  0  0  0  0  0
    0.8258    1.1095   -1.1810 H   0  0  0  0  0  0  0  0  0  0  0  0
    1.0153    2.1131    0.2882 H   0  0  0  0  0  0  0  0  0  0  0  0
  1  2  1  0
  2  3  1  0
  3  4  1  0
  4  5  1  0
  5  6  2  0
  6  7  1  0
  7  8  2  0
  8  9  1  0
  9 10  1  0
 10  2  1  0
  9  5  1  0
  1 11  1  0
  2 12  1  1
  3 13  1  0
  3 14  1  0
  4 15  1  0
  4 16  1  0
 10 17  1  0
 10 18  1  0
M  END
$$$$

     RDKit          3D

 18 19  0  0  0  0  0  0  0  0999 V2000
   -2.4773   -0.7850    0.0734 O   0  0  0  0  0  0  0  0  0  0  0  0
   -1.1511   -0.4546    0.3130 C   0  0  2  0  0  0  0  0  0  0  0  0
   -0.9109    1.0328    0.2583 C   0  0  0  0  0  0  0  0  0  0  0  0
    0.3847    1.4058   -0.4049 C   0  0  0  0  0  0  0  0  0  0  0  0
    1.4564    0.4414   -0.0417 C   0  0  0  0  0  0  0  0  0  0  0  0
    2.7269    0.5201    0.3949 N   0  0  0  0  0  0  0  0  0  0  0  0
    3.1696   -0.7184    0.5406 N   0  0  0  0  0  0  0  0  0  0  0  0
    2.1987   -1.5517    0.2032 N   0  0  0  0  0  0  0  0  0  0  0  0
    1.1446   -0.8697   -0.1553 N   0  0  0  0  0  0  0  0  0  0  0  0
   -0.2039   -1.1614   -0.6196 C   0  0  0  0  0  0  0  0  0  0  0  0
   -2.9685   -0.7867    0.9295 H   0  0  0  0  0  0  0  0  0  0  0  0
   -0.9144   -0.7775    1.3554 H   0  0  0  0  0  0  0  0  0  0  0  0
   -1.7824    1.4734   -0.3030 H   0  0  0  0  0  0  0  0  0  0  0  0
   -0.9466    1.4759    1.2760 H   0  0  0  0  0  0  0  0  0  0  0  0
    0.3005    1.4184   -1.5203 H   0  0  0  0  0  0  0  0  0  0  0  0
    0.7114    2.3945   -0.0116 H   0  0  0  0  0  0  0  0  0  0  0  0
   -0.4073   -2.2452   -0.6236 H   0  0  0  0  0  0  0  0  0  0  0  0
   -0.3306   -0.8122   -1.6643 H   0  0  0  0  0  0  0  0  0  0  0  0
  1  2  1  0
  2  3  1  0
  3  4  1  0
  4  5  1  0
  5  6  2  0
  6  7  1  0
  7  8  2  0
  8  9  1  0
  9 10  1  0
 10  2  1  0
  9  5  1  0
  1 11  1  0
  2 12  1  1
  3 13  1  0
  3 14  1  0
  4 15  1  0
  4 16  1  0
 10 17  1  0
 10 18  1  0
M  END
$$$$

     RDKit          3D

 18 19  0  0  0  0  0  0  0  0999 V2000
    1.4202   -0.3955   -1.2887 O   0  0  0  0  0  0  0  0  0  0  0  0
    1.2352   -0.5188    0.0908 C   0  0  2  0  0  0  0  0  0  0  0  0
    0.1168   -1.4733    0.3381 C   0  0  0  0  0  0  0  0  0  0  0  0
   -1.2397   -0.9653   -0.0258 C   0  0  0  0  0  0  0  0  0  0  0  0
   -1.2881    0.5024   -0.2148 C   0  0  0  0  0  0  0  0  0  0  0  0
   -2.3054    1.2366   -0.7082 N   0  0  0  0  0  0  0  0  0  0  0  0
   -1.9569    2.4908   -0.7131 N   0  0  0  0  0  0  0  0  0  0  0  0
   -0.7232    2.5559   -0.2251 N   0  0  0  0  0  0  0  0  0  0  0  0
   -0.3024    1.3440    0.0838 N   0  0  0  0  0  0  0  0  0  0  0  0
    0.9478    0.8677    0.6407 C   0  0  0  0  0  0  0  0  0  0  0  0
    2.3459   -0.1516   -1.4763 H   0  0  0  0  0  0  0  0  0  0  0  0
    2.1449   -0.8918    0.5650 H   0  0  0  0  0  0  0  0  0  0  0  0
    0.1563   -1.8855    1.3848 H   0  0  0  0  0  0  0  0  0  0  0  0
    0.3096   -2.3757   -0.3131 H   0  0  0  0  0  0  0  0  0  0  0  0
   -1.9773   -1.2863    0.7546 H   0  0  0  0  0  0  0  0  0  0  0  0
   -1.6219   -1.4204   -0.9766 H   0  0  0  0  0  0  0  0  0  0  0  0
    0.9339    0.8643    1.7497 H   0  0  0  0  0  0  0  0  0  0  0  0
    1.8043    1.5023    0.3342 H   0  0  0  0  0  0  0  0  0  0  0  0
  1  2  1  0
  2  3  1  0
  3  4  1  0
  4  5  1  0
  5  6  2  0
  6  7  1  0
  7  8  2  0
  8  9  1  0
  9 10  1  0
 10  2  1  0
  9  5  1  0
  1 11  1  0
  2 12  1  1
  3 13  1  0
  3 14  1  0
  4 15  1  0
  4 16  1  0
 10 17  1  0
 10 18  1  0
M  END
$$$$

     RDKit          3D

 18 19  0  0  0  0  0  0  0  0999 V2000
   -1.4015   -0.5559   -1.1386 O   0  0  0  0  0  0  0  0  0  0  0  0
   -1.2956   -0.2011    0.1944 C   0  0  2  0  0  0  0  0  0  0  0  0
   -0.7915    1.2373    0.3343 C   0  0  0  0  0  0  0  0  0  0  0  0
    0.4149    1.3618   -0.5456 C   0  0  0  0  0  0  0  0  0  0  0  0
    1.2856    0.1769   -0.4462 C   0  0  0  0  0  0  0  0  0  0  0  0
    2.5154   -0.0503   -0.9657 N   0  0  0  0  0  0  0  0  0  0  0  0
    2.9296   -1.2717   -0.6183 N   0  0  0  0  0  0  0  0  0  0  0  0
    1.9696   -1.8202    0.1185 N   0  0  0  0  0  0  0  0  0  0  0  0
    0.9819   -0.9454    0.2198 N   0  0  0  0  0  0  0  0  0  0  0  0
   -0.2761   -1.0649    0.9118 C   0  0  0  0  0  0  0  0  0  0  0  0
   -2.3218   -0.8960   -1.3535 H   0  0  0  0  0  0  0  0  0  0  0  0
   -2.2976   -0.2735    0.6895 H   0  0  0  0  0  0  0  0  0  0  0  0
   -1.5506    1.9770    0.1020 H   0  0  0  0  0  0  0  0  0  0  0  0
   -0.4859    1.3514    1.4117 H   0  0  0  0  0  0  0  0  0  0  0  0
    0.0682    1.4905   -1.6084 H   0  0  0  0  0  0  0  0  0  0  0  0
    0.9984    2.2383   -0.2205 H   0  0  0  0  0  0  0  0  0  0  0  0
   -0.1304   -0.6349    1.9351 H   0  0  0  0  0  0  0  0  0  0  0  0
   -0.6127   -2.1193    0.9797 H   0  0  0  0  0  0  0  0  0  0  0  0
  1  2  1  0
  2  3  1  0
  3  4  1  0
  4  5  1  0
  5  6  2  0
  6  7  1  0
  7  8  2  0
  8  9  1  0
  9 10  1  0
 10  2  1  0
  9  5  1  0
  1 11  1  0
  2 12  1  1
  3 13  1  0
  3 14  1  0
  4 15  1  0
  4 16  1  0
 10 17  1  0
 10 18  1  0
M  END
$$$$

     RDKit          3D

 18 19  0  0  0  0  0  0  0  0999 V2000
   -2.5740    0.1020    0.0307 O   0  0  0  0  0  0  0  0  0  0  0  0
   -1.2078    0.0151   -0.2735 C   0  0  2  0  0  0  0  0  0  0  0  0
   -0.7009   -1.2825    0.2469 C   0  0  0  0  0  0  0  0  0  0  0  0
    0.7858   -1.4014    0.3048 C   0  0  0  0  0  0  0  0  0  0  0  0
    1.4823   -0.1089    0.1561 C   0  0  0  0  0  0  0  0  0  0  0  0
    2.7877    0.1402   -0.0033 N   0  0  0  0  0  0  0  0  0  0  0  0
    2.9543    1.4304   -0.0927 N   0  0  0  0  0  0  0  0  0  0  0  0
    1.7933    2.0512    0.0027 N   0  0  0  0  0  0  0  0  0  0  0  0
    0.8784    1.0885    0.1577 N   0  0  0  0  0  0  0  0  0  0  0  0
   -0.5450    1.2249    0.3090 C   0  0  0  0  0  0  0  0  0  0  0  0
   -2.7889    0.8918    0.5743 H   0  0  0  0  0  0  0  0  0  0  0  0
   -1.1104    0.0369   -1.3711 H   0  0  0  0  0  0  0  0  0  0  0  0
   -1.0641   -2.0871   -0.4572 H   0  0  0  0  0  0  0  0  0  0  0  0
   -1.2072   -1.5002    1.2086 H   0  0  0  0  0  0  0  0  0  0  0  0
    1.1907   -2.1260   -0.4570 H   0  0  0  0  0  0  0  0  0  0  0  0
    1.0481   -1.8714    1.2945 H   0  0  0  0  0  0  0  0  0  0  0  0
   -0.9456    2.1135   -0.2364 H   0  0  0  0  0  0  0  0  0  0  0  0
   -0.7767    1.2832    1.3878 H   0  0  0  0  0  0  0  0  0  0  0  0
  1  2  1  0
  2  3  1  0
  3  4  1  0
  4  5  1  0
  5  6  2  0
  6  7  1  0
  7  8  2  0
  8  9  1  0
  9 10  1  0
 10  2  1  0
  9  5  1  0
  1 11  1  0
  2 12  1  6
  3 13  1  0
  3 14  1  0
  4 15  1  0
  4 16  1  0
 10 17  1  0
 10 18  1  0
M  END
$$$$

     RDKit          3D

 18 19  0  0  0  0  0  0  0  0999 V2000
   -1.6917   -1.2527   -1.0399 O   0  0  0  0  0  0  0  0  0  0  0  0
   -1.2921   -0.5554    0.1239 C   0  0  2  0  0  0  0  0  0  0  0  0
   -1.1909    0.8919   -0.1920 C   0  0  0  0  0  0  0  0  0  0  0  0
    0.1295    1.5136    0.1665 C   0  0  0  0  0  0  0  0  0  0  0  0
    1.2765    0.6162   -0.1029 C   0  0  0  0  0  0  0  0  0  0  0  0
    2.5159    0.7818   -0.6024 N   0  0  0  0  0  0  0  0  0  0  0  0
    3.0962   -0.4015   -0.6048 N   0  0  0  0  0  0  0  0  0  0  0  0
    2.2825   -1.3187   -0.1284 N   0  0  0  0  0  0  0  0  0  0  0  0
    1.1583   -0.6872    0.1812 N   0  0  0  0  0  0  0  0  0  0  0  0
   -0.0719   -1.1595    0.7336 C   0  0  0  0  0  0  0  0  0  0  0  0
   -0.9213   -1.2377   -1.6479 H   0  0  0  0  0  0  0  0  0  0  0  0
   -2.1389   -0.7270    0.8524 H   0  0  0  0  0  0  0  0  0  0  0  0
   -1.3646    1.0766   -1.2845 H   0  0  0  0  0  0  0  0  0  0  0  0
   -1.9820    1.4632    0.3416 H   0  0  0  0  0  0  0  0  0  0  0  0
    0.1344    1.8497    1.2165 H   0  0  0  0  0  0  0  0  0  0  0  0
    0.2595    2.4125   -0.4718 H   0  0  0  0  0  0  0  0  0  0  0  0
   -0.1435   -2.2639    0.6091 H   0  0  0  0  0  0  0  0  0  0  0  0
   -0.0556   -1.0020    1.8498 H   0  0  0  0  0  0  0  0  0  0  0  0
  1  2  1  0
  2  3  1  0
  3  4  1  0
  4  5  1  0
  5  6  2  0
  6  7  1  0
  7  8  2  0
  8  9  1  0
  9 10  1  0
 10  2  1  0
  9  5  1  0
  1 11  1  0
  2 12  1  1
  3 13  1  0
  3 14  1  0
  4 15  1  0
  4 16  1  0
 10 17  1  0
 10 18  1  0
M  END
$$$$

     RDKit          3D

 18 19  0  0  0  0  0  0  0  0999 V2000
   -2.4135   -0.9834    0.0334 O   0  0  0  0  0  0  0  0  0  0  0  0
   -1.1700   -0.4302    0.2027 C   0  0  2  0  0  0  0  0  0  0  0  0
   -0.9460    0.8033   -0.6665 C   0  0  0  0  0  0  0  0  0  0  0  0
    0.2220    1.5423   -0.0400 C   0  0  0  0  0  0  0  0  0  0  0  0
    1.3260    0.5951    0.1391 C   0  0  0  0  0  0  0  0  0  0  0  0
    2.6306    0.8363    0.3908 N   0  0  0  0  0  0  0  0  0  0  0  0
    3.2975   -0.3152    0.4820 N   0  0  0  0  0  0  0  0  0  0  0  0
    2.3962   -1.2533    0.2854 N   0  0  0  0  0  0  0  0  0  0  0  0
    1.1966   -0.7206    0.0762 N   0  0  0  0  0  0  0  0  0  0  0  0
   -0.0624   -1.4106   -0.1801 C   0  0  0  0  0  0  0  0  0  0  0  0
   -2.9596   -0.7324    0.8323 H   0  0  0  0  0  0  0  0  0  0  0  0
   -0.9797   -0.1782    1.2740 H   0  0  0  0  0  0  0  0  0  0  0  0
   -1.8697    1.4262   -0.6798 H   0  0  0  0  0  0  0  0  0  0  0  0
   -0.6796    0.4543   -1.6988 H   0  0  0  0  0  0  0  0  0  0  0  0
   -0.1457    1.8956    0.9652 H   0  0  0  0  0  0  0  0  0  0  0  0
    0.4859    2.4540   -0.5972 H   0  0  0  0  0  0  0  0  0  0  0  0
   -0.1667   -2.3254    0.4411 H   0  0  0  0  0  0  0  0  0  0  0  0
   -0.1618   -1.6580   -1.2598 H   0  0  0  0  0  0  0  0  0  0  0  0
  1  2  1  0
  2  3  1  0
  3  4  1  0
  4  5  1  0
  5  6  2  0
  6  7  1  0
  7  8  2  0
  8  9  1  0
  9 10  1  0
 10  2  1  0
  9  5  1  0
  1 11  1  0
  2 12  1  1
  3 13  1  0
  3 14  1  0
  4 15  1  0
  4 16  1  0
 10 17  1  0
 10 18  1  0
M  END
$$$$

     RDKit          3D

 18 19  0  0  0  0  0  0  0  0999 V2000
   -0.1127    0.9464    1.6409 O   0  0  0  0  0  0  0  0  0  0  0  0
   -0.7715    1.0761    0.4464 C   0  0  2  0  0  0  0  0  0  0  0  0
   -1.4984   -0.1631    0.0156 C   0  0  0  0  0  0  0  0  0  0  0  0
   -0.5791   -1.3289   -0.1846 C   0  0  0  0  0  0  0  0  0  0  0  0
    0.8577   -0.9795   -0.1929 C   0  0  0  0  0  0  0  0  0  0  0  0
    1.9718   -1.7525   -0.0116 N   0  0  0  0  0  0  0  0  0  0  0  0
    3.0198   -0.9758   -0.1139 N   0  0  0  0  0  0  0  0  0  0  0  0
    2.5843    0.2524   -0.3528 N   0  0  0  0  0  0  0  0  0  0  0  0
    1.2784    0.2758   -0.4050 N   0  0  0  0  0  0  0  0  0  0  0  0
    0.3024    1.3179   -0.6267 C   0  0  0  0  0  0  0  0  0  0  0  0
   -0.2480    0.1144    2.1183 H   0  0  0  0  0  0  0  0  0  0  0  0
   -1.4666    1.9218    0.5047 H   0  0  0  0  0  0  0  0  0  0  0  0
   -2.0314    0.1071   -0.9435 H   0  0  0  0  0  0  0  0  0  0  0  0
   -2.2845   -0.3919    0.7659 H   0  0  0  0  0  0  0  0  0  0  0  0
   -0.7855   -1.8301   -1.1601 H   0  0  0  0  0  0  0  0  0  0  0  0
   -0.7731   -2.0888    0.6158 H   0  0  0  0  0  0  0  0  0  0  0  0
   -0.1791    1.1687   -1.6220 H   0  0  0  0  0  0  0  0  0  0  0  0
    0.7152    2.3300   -0.4945 H   0  0  0  0  0  0  0  0  0  0  0  0
  1  2  1  0
  2  3  1  0
  3  4  1  0
  4  5  1  0
  5  6  2  0
  6  7  1  0
  7  8  2  0
  8  9  1  0
  9 10  1  0
 10  2  1  0
  9  5  1  0
  1 11  1  0
  2 12  1  1
  3 13  1  0
  3 14  1  0
  4 15  1  0
  4 16  1  0
 10 17  1  0
 10 18  1  0
M  END
$$$$
