
     RDKit          3D

 25 25  0  0  0  0  0  0  0  0999 V2000
    3.9511    0.8806   -0.2014 C   0  0  0  0  0  0  0  0  0  0  0  0
    2.5980    0.8275    0.2337 O   0  0  0  0  0  0  0  0  0  0  0  0
    1.7661   -0.2190   -0.1510 C   0  0  0  0  0  0  0  0  0  0  0  0
    2.2905   -1.0961   -0.8970 O   0  0  0  0  0  0  0  0  0  0  0  0
    0.3495   -0.2852    0.2978 C   0  0  2  0  0  0  0  0  0  0  0  0
   -0.2190   -1.4941   -0.2828 N   0  0  0  0  0  0  0  0  0  0  0  0
   -1.4682   -1.8556    0.3489 C   0  0  0  0  0  0  0  0  0  0  0  0
   -2.2386   -0.6033    0.6513 C   0  0  0  0  0  0  0  0  0  0  0  0
   -1.8761    0.4269   -0.3947 C   0  0  1  0  0  0  0  0  0  0  0  0
   -2.7938    1.4663   -0.2882 O   0  0  0  0  0  0  0  0  0  0  0  0
   -0.4567    0.8772   -0.2599 C   0  0  1  0  0  0  0  0  0  0  0  0
   -0.3809    2.0053    0.5145 O   0  0  0  0  0  0  0  0  0  0  0  0
    3.9440    1.2768   -1.2368 H   0  0  0  0  0  0  0  0  0  0  0  0
    4.5377    1.4917    0.4946 H   0  0  0  0  0  0  0  0  0  0  0  0
    4.3476   -0.1587   -0.2798 H   0  0  0  0  0  0  0  0  0  0  0  0
    0.2838   -0.3055    1.3997 H   0  0  0  0  0  0  0  0  0  0  0  0
   -0.3768   -1.2921   -1.2942 H   0  0  0  0  0  0  0  0  0  0  0  0
   -1.2669   -2.4740    1.2494 H   0  0  0  0  0  0  0  0  0  0  0  0
   -2.0487   -2.4380   -0.4011 H   0  0  0  0  0  0  0  0  0  0  0  0
   -3.3301   -0.7971    0.6149 H   0  0  0  0  0  0  0  0  0  0  0  0
   -1.9245   -0.2523    1.6542 H   0  0  0  0  0  0  0  0  0  0  0  0
   -1.9964   -0.0508   -1.4013 H   0  0  0  0  0  0  0  0  0  0  0  0
   -3.6933    1.0597   -0.2786 H   0  0  0  0  0  0  0  0  0  0  0  0
   -0.0478    1.1048   -1.2762 H   0  0  0  0  0  0  0  0  0  0  0  0
    0.0495    1.9050    1.3791 H   0  0  0  0  0  0  0  0  0  0  0  0
  1  2  1  0
  2  3  1  0
  3  4  2  0
  3  5  1  0
  5  6  1  0
  6  7  1  0
  7  8  1  0
  8  9  1  0
  9 10  1  0
  9 11  1  0
 11 12  1  0
 11  5  1  0
  1 13  1  0
  1 14  1  0
  1 15  1  0
  5 16  1  1
  6 17  1  0
  7 18  1  0
  7 19  1  0
  8 20  1  0
  8 21  1  0
  9 22  1  6
 10 23  1  0
 11 24  1  6
 12 25  1  0
M  END
$$$$

     RDKit          3D

 25 25  0  0  0  0  0  0  0  0999 V2000
    3.9986    0.1962    0.4147 C   0  0  0  0  0  0  0  0  0  0  0  0
    2.6635    0.4220    0.0927 O   0  0  0  0  0  0  0  0  0  0  0  0
    1.6284   -0.5324    0.2904 C   0  0  0  0  0  0  0  0  0  0  0  0
    1.8251   -1.5617    0.8065 O   0  0  0  0  0  0  0  0  0  0  0  0
    0.3097   -0.0768   -0.2388 C   0  0  2  0  0  0  0  0  0  0  0  0
   -0.0700    1.1959    0.1736 N   0  0  0  0  0  0  0  0  0  0  0  0
   -1.4051    1.5479    0.4311 C   0  0  0  0  0  0  0  0  0  0  0  0
   -2.4451    0.5196    0.2461 C   0  0  0  0  0  0  0  0  0  0  0  0
   -1.9982   -0.6738   -0.5698 C   0  0  1  0  0  0  0  0  0  0  0  0
   -1.5663   -0.2412   -1.8340 O   0  0  0  0  0  0  0  0  0  0  0  0
   -0.7203   -1.1517    0.1426 C   0  0  1  0  0  0  0  0  0  0  0  0
   -0.3151   -2.3762   -0.3071 O   0  0  0  0  0  0  0  0  0  0  0  0
    4.5424    1.1497    0.1396 H   0  0  0  0  0  0  0  0  0  0  0  0
    4.3758   -0.5437   -0.4165 H   0  0  0  0  0  0  0  0  0  0  0  0
    4.3022   -0.2453    1.3462 H   0  0  0  0  0  0  0  0  0  0  0  0
    0.4154   -0.1578   -1.3351 H   0  0  0  0  0  0  0  0  0  0  0  0
    0.3227    1.8768   -0.6040 H   0  0  0  0  0  0  0  0  0  0  0  0
   -1.4401    1.9413    1.4869 H   0  0  0  0  0  0  0  0  0  0  0  0
   -1.6877    2.4390   -0.1915 H   0  0  0  0  0  0  0  0  0  0  0  0
   -3.3915    0.8995   -0.2032 H   0  0  0  0  0  0  0  0  0  0  0  0
   -2.7351    0.1132    1.2501 H   0  0  0  0  0  0  0  0  0  0  0  0
   -2.7672   -1.4331   -0.6103 H   0  0  0  0  0  0  0  0  0  0  0  0
   -1.7704    0.7223   -1.9573 H   0  0  0  0  0  0  0  0  0  0  0  0
   -0.9219   -1.1247    1.2337 H   0  0  0  0  0  0  0  0  0  0  0  0
   -1.1498   -2.9051   -0.5215 H   0  0  0  0  0  0  0  0  0  0  0  0
  1  2  1  0
  2  3  1  0
  3  4  2  0
  3  5  1  0
  5  6  1  0
  6  7  1  0
  7  8  1  0
  8  9  1  0
  9 10  1  0
  9 11  1  0
 11 12  1  0
 11  5  1  0
  1 13  1  0
  1 14  1  0
  1 15  1  0
  5 16  1  6
  6 17  1  0
  7 18  1  0
  7 19  1  0
  8 20  1  0
  8 21  1  0
  9 22  1  6
 10 23  1  0
 11 24  1  1
 12 25  1  0
M  END
$$$$

     RDKit          3D

 25 25  0  0  0  0  0  0  0  0999 V2000
    4.0098   -0.0369    0.0425 C   0  0  0  0  0  0  0  0  0  0  0  0
    2.6635   -0.2639    0.5182 O   0  0  0  0  0  0  0  0  0  0  0  0
    1.5708    0.1051   -0.3889 C   0  0  0  0  0  0  0  0  0  0  0  0
    1.9062    0.5737   -1.4396 O   0  0  0  0  0  0  0  0  0  0  0  0
    0.2444   -0.1084    0.1111 C   0  0  2  0  0  0  0  0  0  0  0  0
   -0.2201   -1.4756    0.2863 N   0  0  0  0  0  0  0  0  0  0  0  0
   -1.5779   -1.4368    0.8203 C   0  0  0  0  0  0  0  0  0  0  0  0
   -2.4403   -0.3003    0.5472 C   0  0  0  0  0  0  0  0  0  0  0  0
   -1.9082    0.8048   -0.2856 C   0  0  1  0  0  0  0  0  0  0  0  0
   -1.3717    1.7672    0.6057 O   0  0  0  0  0  0  0  0  0  0  0  0
   -0.7210    0.3296   -1.0610 C   0  0  1  0  0  0  0  0  0  0  0  0
   -0.1819    1.2239   -1.9023 O   0  0  0  0  0  0  0  0  0  0  0  0
    4.0150    0.9268   -0.6010 H   0  0  0  0  0  0  0  0  0  0  0  0
    4.4467   -0.8264   -0.5393 H   0  0  0  0  0  0  0  0  0  0  0  0
    4.6288    0.2270    0.9591 H   0  0  0  0  0  0  0  0  0  0  0  0
    0.0003    0.4497    0.9935 H   0  0  0  0  0  0  0  0  0  0  0  0
    0.4101   -1.9848    0.9455 H   0  0  0  0  0  0  0  0  0  0  0  0
   -1.4468   -1.5279    1.9399 H   0  0  0  0  0  0  0  0  0  0  0  0
   -2.0583   -2.4186    0.5317 H   0  0  0  0  0  0  0  0  0  0  0  0
   -2.8520    0.1723    1.4901 H   0  0  0  0  0  0  0  0  0  0  0  0
   -3.3838   -0.6528    0.0302 H   0  0  0  0  0  0  0  0  0  0  0  0
   -2.6279    1.3150   -0.9417 H   0  0  0  0  0  0  0  0  0  0  0  0
   -1.4797    2.6823    0.3067 H   0  0  0  0  0  0  0  0  0  0  0  0
   -1.1075   -0.5922   -1.5920 H   0  0  0  0  0  0  0  0  0  0  0  0
   -0.5186    1.0470   -2.8604 H   0  0  0  0  0  0  0  0  0  0  0  0
  1  2  1  0
  2  3  1  0
  3  4  2  0
  3  5  1  0
  5  6  1  0
  6  7  1  0
  7  8  1  0
  8  9  1  0
  9 10  1  0
  9 11  1  0
 11 12  1  0
 11  5  1  0
  1 13  1  0
  1 14  1  0
  1 15  1  0
  5 16  1  1
  6 17  1  0
  7 18  1  0
  7 19  1  0
  8 20  1  0
  8 21  1  0
  9 22  1  6
 10 23  1  0
 11 24  1  6
 12 25  1  0
M  END
$$$$

     RDKit          3D

 25 25  0  0  0  0  0  0  0  0999 V2000
    3.7665    0.8415   -0.4150 C   0  0  0  0  0  0  0  0  0  0  0  0
    2.3776    1.0262   -0.1401 O   0  0  0  0  0  0  0  0  0  0  0  0
    1.6640   -0.0649    0.3578 C   0  0  0  0  0  0  0  0  0  0  0  0
    2.2472   -1.1586    0.5479 O   0  0  0  0  0  0  0  0  0  0  0  0
    0.2246    0.0306    0.6716 C   0  0  2  0  0  0  0  0  0  0  0  0
   -0.2447   -1.2226    1.1601 N   0  0  0  0  0  0  0  0  0  0  0  0
   -1.1921   -1.8514    0.2503 C   0  0  0  0  0  0  0  0  0  0  0  0
   -2.4209   -0.9516    0.2277 C   0  0  0  0  0  0  0  0  0  0  0  0
   -2.0105    0.3647   -0.3454 C   0  0  1  0  0  0  0  0  0  0  0  0
   -2.4750    1.3754    0.5029 O   0  0  0  0  0  0  0  0  0  0  0  0
   -0.5397    0.5323   -0.5306 C   0  0  1  0  0  0  0  0  0  0  0  0
   -0.2822    1.9118   -0.6195 O   0  0  0  0  0  0  0  0  0  0  0  0
    4.1450    0.0200    0.2333 H   0  0  0  0  0  0  0  0  0  0  0  0
    4.2839    1.7582   -0.1100 H   0  0  0  0  0  0  0  0  0  0  0  0
    3.9242    0.5901   -1.4803 H   0  0  0  0  0  0  0  0  0  0  0  0
    0.0933    0.8114    1.4678 H   0  0  0  0  0  0  0  0  0  0  0  0
    0.4934   -1.8697    1.4785 H   0  0  0  0  0  0  0  0  0  0  0  0
   -1.4223   -2.8644    0.6318 H   0  0  0  0  0  0  0  0  0  0  0  0
   -0.7771   -1.8943   -0.7815 H   0  0  0  0  0  0  0  0  0  0  0  0
   -2.7771   -0.8451    1.2572 H   0  0  0  0  0  0  0  0  0  0  0  0
   -3.2104   -1.4636   -0.3588 H   0  0  0  0  0  0  0  0  0  0  0  0
   -2.4942    0.5184   -1.3479 H   0  0  0  0  0  0  0  0  0  0  0  0
   -2.9991    2.0603    0.0157 H   0  0  0  0  0  0  0  0  0  0  0  0
   -0.1685    0.0197   -1.4338 H   0  0  0  0  0  0  0  0  0  0  0  0
   -0.2058    2.3255    0.2910 H   0  0  0  0  0  0  0  0  0  0  0  0
  1  2  1  0
  2  3  1  0
  3  4  2  0
  3  5  1  0
  5  6  1  0
  6  7  1  0
  7  8  1  0
  8  9  1  0
  9 10  1  0
  9 11  1  0
 11 12  1  0
 11  5  1  0
  1 13  1  0
  1 14  1  0
  1 15  1  0
  5 16  1  1
  6 17  1  0
  7 18  1  0
  7 19  1  0
  8 20  1  0
  8 21  1  0
  9 22  1  6
 10 23  1  0
 11 24  1  6
 12 25  1  0
M  END
$$$$

     RDKit          3D

 25 25  0  0  0  0  0  0  0  0999 V2000
    3.8993    0.0907    0.2344 C   0  0  0  0  0  0  0  0  0  0  0  0
    2.5474    0.2157    0.6172 O   0  0  0  0  0  0  0  0  0  0  0  0
    1.6296   -0.6679    0.0731 C   0  0  0  0  0  0  0  0  0  0  0  0
    2.0396   -1.5380   -0.7339 O   0  0  0  0  0  0  0  0  0  0  0  0
    0.1864   -0.6132    0.4164 C   0  0  2  0  0  0  0  0  0  0  0  0
   -0.4938   -1.6245   -0.2828 N   0  0  0  0  0  0  0  0  0  0  0  0
   -1.6905   -1.2562   -0.9521 C   0  0  0  0  0  0  0  0  0  0  0  0
   -2.4664   -0.3727    0.0368 C   0  0  0  0  0  0  0  0  0  0  0  0
   -1.7202    0.9659   -0.0614 C   0  0  1  0  0  0  0  0  0  0  0  0
   -2.3503    1.9451    0.6952 O   0  0  0  0  0  0  0  0  0  0  0  0
   -0.2841    0.7841    0.2362 C   0  0  1  0  0  0  0  0  0  0  0  0
    0.0091    1.5048    1.4138 O   0  0  0  0  0  0  0  0  0  0  0  0
    4.2962   -0.8433    0.6913 H   0  0  0  0  0  0  0  0  0  0  0  0
    4.5112    0.9602    0.5502 H   0  0  0  0  0  0  0  0  0  0  0  0
    4.0000   -0.0422   -0.8619 H   0  0  0  0  0  0  0  0  0  0  0  0
    0.1343   -0.8550    1.5194 H   0  0  0  0  0  0  0  0  0  0  0  0
    0.0621   -2.3711   -0.7066 H   0  0  0  0  0  0  0  0  0  0  0  0
   -2.2688   -2.1458   -1.2420 H   0  0  0  0  0  0  0  0  0  0  0  0
   -1.4126   -0.6668   -1.8626 H   0  0  0  0  0  0  0  0  0  0  0  0
   -2.3151   -0.7297    1.0762 H   0  0  0  0  0  0  0  0  0  0  0  0
   -3.5111   -0.2624   -0.2582 H   0  0  0  0  0  0  0  0  0  0  0  0
   -1.8510    1.2719   -1.1416 H   0  0  0  0  0  0  0  0  0  0  0  0
   -2.6351    2.7308    0.1497 H   0  0  0  0  0  0  0  0  0  0  0  0
    0.3275    1.2756   -0.5610 H   0  0  0  0  0  0  0  0  0  0  0  0
   -0.6436    2.2439    1.5566 H   0  0  0  0  0  0  0  0  0  0  0  0
  1  2  1  0
  2  3  1  0
  3  4  2  0
  3  5  1  0
  5  6  1  0
  6  7  1  0
  7  8  1  0
  8  9  1  0
  9 10  1  0
  9 11  1  0
 11 12  1  0
 11  5  1  0
  1 13  1  0
  1 14  1  0
  1 15  1  0
  5 16  1  1
  6 17  1  0
  7 18  1  0
  7 19  1  0
  8 20  1  0
  8 21  1  0
  9 22  1  6
 10 23  1  0
 11 24  1  6
 12 25  1  0
M  END
$$$$

     RDKit          3D

 25 25  0  0  0  0  0  0  0  0999 V2000
    3.8876    0.5611    0.6953 C   0  0  0  0  0  0  0  0  0  0  0  0
    2.5769    0.8744    0.2602 O   0  0  0  0  0  0  0  0  0  0  0  0
    1.6392   -0.1535    0.1309 C   0  0  0  0  0  0  0  0  0  0  0  0
    2.0362   -1.3200    0.4379 O   0  0  0  0  0  0  0  0  0  0  0  0
    0.2670    0.0130   -0.3144 C   0  0  2  0  0  0  0  0  0  0  0  0
   -0.0905    1.2859   -0.8138 N   0  0  0  0  0  0  0  0  0  0  0  0
   -1.4649    1.5755   -0.9282 C   0  0  0  0  0  0  0  0  0  0  0  0
   -2.4649    0.5775   -0.5617 C   0  0  0  0  0  0  0  0  0  0  0  0
   -1.9751   -0.7218    0.0119 C   0  0  1  0  0  0  0  0  0  0  0  0
   -1.6134   -1.5440   -1.0506 O   0  0  0  0  0  0  0  0  0  0  0  0
   -0.6881   -0.3957    0.7729 C   0  0  1  0  0  0  0  0  0  0  0  0
   -0.2307   -1.4666    1.5207 O   0  0  0  0  0  0  0  0  0  0  0  0
    4.6904    0.9413    0.0506 H   0  0  0  0  0  0  0  0  0  0  0  0
    4.0262    0.8848    1.7701 H   0  0  0  0  0  0  0  0  0  0  0  0
    4.0245   -0.5564    0.7341 H   0  0  0  0  0  0  0  0  0  0  0  0
    0.1106   -0.6924   -1.2232 H   0  0  0  0  0  0  0  0  0  0  0  0
    0.4774    2.0737   -0.4139 H   0  0  0  0  0  0  0  0  0  0  0  0
   -1.6725    2.5284   -0.3542 H   0  0  0  0  0  0  0  0  0  0  0  0
   -1.6356    1.8789   -2.0056 H   0  0  0  0  0  0  0  0  0  0  0  0
   -3.1111    0.2739   -1.4401 H   0  0  0  0  0  0  0  0  0  0  0  0
   -3.2179    0.9762    0.1827 H   0  0  0  0  0  0  0  0  0  0  0  0
   -2.6964   -1.2241    0.6610 H   0  0  0  0  0  0  0  0  0  0  0  0
   -2.1013   -1.2837   -1.8798 H   0  0  0  0  0  0  0  0  0  0  0  0
   -0.9218    0.5077    1.3906 H   0  0  0  0  0  0  0  0  0  0  0  0
    0.1481   -1.0782    2.3667 H   0  0  0  0  0  0  0  0  0  0  0  0
  1  2  1  0
  2  3  1  0
  3  4  2  0
  3  5  1  0
  5  6  1  0
  6  7  1  0
  7  8  1  0
  8  9  1  0
  9 10  1  0
  9 11  1  0
 11 12  1  0
 11  5  1  0
  1 13  1  0
  1 14  1  0
  1 15  1  0
  5 16  1  6
  6 17  1  0
  7 18  1  0
  7 19  1  0
  8 20  1  0
  8 21  1  0
  9 22  1  1
 10 23  1  0
 11 24  1  1
 12 25  1  0
M  END
$$$$

     RDKit          3D

 25 25  0  0  0  0  0  0  0  0999 V2000
    3.9398   -0.8546    0.0558 C   0  0  0  0  0  0  0  0  0  0  0  0
    2.5910   -0.5563   -0.2641 O   0  0  0  0  0  0  0  0  0  0  0  0
    1.7337    0.1264    0.5464 C   0  0  0  0  0  0  0  0  0  0  0  0
    2.1586    0.5257    1.6614 O   0  0  0  0  0  0  0  0  0  0  0  0
    0.3112    0.4158    0.1573 C   0  0  2  0  0  0  0  0  0  0  0  0
   -0.3842    1.1432    1.1717 N   0  0  0  0  0  0  0  0  0  0  0  0
   -1.4793    1.8646    0.5129 C   0  0  0  0  0  0  0  0  0  0  0  0
   -2.1011    0.9951   -0.5601 C   0  0  0  0  0  0  0  0  0  0  0  0
   -1.9320   -0.4702   -0.1638 C   0  0  1  0  0  0  0  0  0  0  0  0
   -2.6027   -1.3038   -1.0248 O   0  0  0  0  0  0  0  0  0  0  0  0
   -0.4496   -0.8400   -0.1575 C   0  0  1  0  0  0  0  0  0  0  0  0
   -0.1211   -1.1867   -1.4876 O   0  0  0  0  0  0  0  0  0  0  0  0
    4.0475   -1.7285    0.7132 H   0  0  0  0  0  0  0  0  0  0  0  0
    4.4269   -1.1331   -0.9211 H   0  0  0  0  0  0  0  0  0  0  0  0
    4.4854    0.0393    0.4142 H   0  0  0  0  0  0  0  0  0  0  0  0
    0.2847    1.0415   -0.7796 H   0  0  0  0  0  0  0  0  0  0  0  0
   -0.7938    0.5328    1.9265 H   0  0  0  0  0  0  0  0  0  0  0  0
   -2.2345    2.2178    1.2232 H   0  0  0  0  0  0  0  0  0  0  0  0
   -0.9750    2.7322   -0.0043 H   0  0  0  0  0  0  0  0  0  0  0  0
   -1.6662    1.1926   -1.5594 H   0  0  0  0  0  0  0  0  0  0  0  0
   -3.1896    1.1721   -0.6458 H   0  0  0  0  0  0  0  0  0  0  0  0
   -2.3057   -0.5467    0.8810 H   0  0  0  0  0  0  0  0  0  0  0  0
   -3.4917   -1.5512   -0.6759 H   0  0  0  0  0  0  0  0  0  0  0  0
   -0.2454   -1.6721    0.5408 H   0  0  0  0  0  0  0  0  0  0  0  0
   -0.0070   -2.1559   -1.5604 H   0  0  0  0  0  0  0  0  0  0  0  0
  1  2  1  0
  2  3  1  0
  3  4  2  0
  3  5  1  0
  5  6  1  0
  6  7  1  0
  7  8  1  0
  8  9  1  0
  9 10  1  0
  9 11  1  0
 11 12  1  0
 11  5  1  0
  1 13  1  0
  1 14  1  0
  1 15  1  0
  5 16  1  6
  6 17  1  0
  7 18  1  0
  7 19  1  0
  8 20  1  0
  8 21  1  0
  9 22  1  1
 10 23  1  0
 11 24  1  1
 12 25  1  0
M  END
$$$$

     RDKit          3D

 25 25  0  0  0  0  0  0  0  0999 V2000
    3.8054   -0.7510   -0.3810 C   0  0  0  0  0  0  0  0  0  0  0  0
    2.4610   -0.4195   -0.5473 O   0  0  0  0  0  0  0  0  0  0  0  0
    1.6655    0.2017    0.3937 C   0  0  0  0  0  0  0  0  0  0  0  0
    2.1775    0.4991    1.4929 O   0  0  0  0  0  0  0  0  0  0  0  0
    0.2440    0.4813    0.0443 C   0  0  2  0  0  0  0  0  0  0  0  0
   -0.3536    1.1287    1.1933 N   0  0  0  0  0  0  0  0  0  0  0  0
   -1.7637    1.4117    0.9852 C   0  0  0  0  0  0  0  0  0  0  0  0
   -2.4580    0.0931    0.7767 C   0  0  0  0  0  0  0  0  0  0  0  0
   -1.9342   -0.4737   -0.5342 C   0  0  1  0  0  0  0  0  0  0  0  0
   -2.1411    0.3711   -1.5998 O   0  0  0  0  0  0  0  0  0  0  0  0
   -0.4839   -0.7953   -0.2985 C   0  0  1  0  0  0  0  0  0  0  0  0
    0.1257   -1.4495   -1.3340 O   0  0  0  0  0  0  0  0  0  0  0  0
    3.9964   -1.7699   -0.7830 H   0  0  0  0  0  0  0  0  0  0  0  0
    4.3987   -0.0432   -1.0209 H   0  0  0  0  0  0  0  0  0  0  0  0
    4.1688   -0.6725    0.6506 H   0  0  0  0  0  0  0  0  0  0  0  0
    0.2563    1.1545   -0.8352 H   0  0  0  0  0  0  0  0  0  0  0  0
    0.1919    1.9967    1.3691 H   0  0  0  0  0  0  0  0  0  0  0  0
   -1.8395    2.0580    0.0656 H   0  0  0  0  0  0  0  0  0  0  0  0
   -2.1415    1.9128    1.8839 H   0  0  0  0  0  0  0  0  0  0  0  0
   -3.5597    0.1813    0.7742 H   0  0  0  0  0  0  0  0  0  0  0  0
   -2.1022   -0.6098    1.5702 H   0  0  0  0  0  0  0  0  0  0  0  0
   -2.4970   -1.4056   -0.7183 H   0  0  0  0  0  0  0  0  0  0  0  0
   -1.3471    0.5516   -2.1478 H   0  0  0  0  0  0  0  0  0  0  0  0
   -0.4489   -1.4301    0.6285 H   0  0  0  0  0  0  0  0  0  0  0  0
   -0.4208   -2.2213   -1.6282 H   0  0  0  0  0  0  0  0  0  0  0  0
  1  2  1  0
  2  3  1  0
  3  4  2  0
  3  5  1  0
  5  6  1  0
  6  7  1  0
  7  8  1  0
  8  9  1  0
  9 10  1  0
  9 11  1  0
 11 12  1  0
 11  5  1  0
  1 13  1  0
  1 14  1  0
  1 15  1  0
  5 16  1  6
  6 17  1  0
  7 18  1  0
  7 19  1  0
  8 20  1  0
  8 21  1  0
  9 22  1  6
 10 23  1  0
 11 24  1  1
 12 25  1  0
M  END
$$$$
