
     RDKit          3D

 27 27  0  0  0  0  0  0  0  0999 V2000
   -3.1009   -1.5552    1.0929 C   0  0  0  0  0  0  0  0  0  0  0  0
   -2.9710   -0.3803    0.1525 C   0  0  0  0  0  0  0  0  0  0  0  0
   -3.4271    0.8918    0.8651 C   0  0  0  0  0  0  0  0  0  0  0  0
   -3.7868   -0.5918   -0.9298 O   0  0  0  0  0  0  0  0  0  0  0  0
   -1.5745   -0.1777   -0.2489 C   0  0  0  0  0  0  0  0  0  0  0  0
   -1.2890   -0.2171   -1.4745 O   0  0  0  0  0  0  0  0  0  0  0  0
   -0.5352    0.0590    0.6667 N   0  0  0  0  0  0  0  0  0  0  0  0
    0.7849    0.2442    0.1968 C   0  0  0  0  0  0  0  0  0  0  0  0
    1.2072    0.2235   -1.0839 N   0  0  0  0  0  0  0  0  0  0  0  0
    2.5013    0.4338   -1.1361 N   0  0  0  0  0  0  0  0  0  0  0  0
    2.9362    0.5949    0.1237 C   0  0  0  0  0  0  0  0  0  0  0  0
    4.3624    0.8565    0.4868 C   0  0  0  0  0  0  0  0  0  0  0  0
    5.0492   -0.3978    0.7000 N   0  0  0  0  0  0  0  0  0  0  0  0
    1.8955    0.4817    0.9574 N   0  0  0  0  0  0  0  0  0  0  0  0
   -4.1809   -1.7607    1.2181 H   0  0  0  0  0  0  0  0  0  0  0  0
   -2.6511   -2.4262    0.5860 H   0  0  0  0  0  0  0  0  0  0  0  0
   -2.6755   -1.3643    2.0893 H   0  0  0  0  0  0  0  0  0  0  0  0
   -3.1766    1.7503    0.1998 H   0  0  0  0  0  0  0  0  0  0  0  0
   -2.7625    0.9871    1.7678 H   0  0  0  0  0  0  0  0  0  0  0  0
   -4.4966    0.8481    1.1344 H   0  0  0  0  0  0  0  0  0  0  0  0
   -3.5388   -0.0443   -1.7189 H   0  0  0  0  0  0  0  0  0  0  0  0
   -0.7234    0.0991    1.6743 H   0  0  0  0  0  0  0  0  0  0  0  0
    3.1327    0.4780   -1.9882 H   0  0  0  0  0  0  0  0  0  0  0  0
    4.4154    1.4926    1.3863 H   0  0  0  0  0  0  0  0  0  0  0  0
    4.8717    1.3494   -0.3883 H   0  0  0  0  0  0  0  0  0  0  0  0
    5.1097   -0.9491   -0.1580 H   0  0  0  0  0  0  0  0  0  0  0  0
    4.6239   -0.9256    1.5061 H   0  0  0  0  0  0  0  0  0  0  0  0
  1  2  1  0
  2  3  1  0
  2  4  1  0
  2  5  1  0
  5  6  2  0
  5  7  1  0
  7  8  1  0
  8  9  2  0
  9 10  1  0
 10 11  1  0
 11 12  1  0
 12 13  1  0
 11 14  2  0
 14  8  1  0
  1 15  1  0
  1 16  1  0
  1 17  1  0
  3 18  1  0
  3 19  1  0
  3 20  1  0
  4 21  1  0
  7 22  1  0
 10 23  1  0
 12 24  1  0
 12 25  1  0
 13 26  1  0
 13 27  1  0
M  END
$$$$

     RDKit          3D

 27 27  0  0  0  0  0  0  0  0999 V2000
   -3.6864    0.9066   -0.3873 C   0  0  0  0  0  0  0  0  0  0  0  0
   -2.9717   -0.4145   -0.1581 C   0  0  0  0  0  0  0  0  0  0  0  0
   -3.5697   -1.1298    1.0291 C   0  0  0  0  0  0  0  0  0  0  0  0
   -3.0371   -1.1740   -1.3177 O   0  0  0  0  0  0  0  0  0  0  0  0
   -1.5464   -0.0836    0.1391 C   0  0  0  0  0  0  0  0  0  0  0  0
   -1.3025    0.6065    1.1653 O   0  0  0  0  0  0  0  0  0  0  0  0
   -0.4824   -0.5205   -0.6922 N   0  0  0  0  0  0  0  0  0  0  0  0
    0.8535   -0.1686   -0.3494 C   0  0  0  0  0  0  0  0  0  0  0  0
    1.2086    0.5588    0.7178 N   0  0  0  0  0  0  0  0  0  0  0  0
    2.4978    0.7019    0.7462 N   0  0  0  0  0  0  0  0  0  0  0  0
    2.9874    0.0579   -0.3184 C   0  0  0  0  0  0  0  0  0  0  0  0
    4.4521    0.0037   -0.6201 C   0  0  0  0  0  0  0  0  0  0  0  0
    5.2273    0.7224    0.3710 N   0  0  0  0  0  0  0  0  0  0  0  0
    1.9825   -0.4935   -1.0177 N   0  0  0  0  0  0  0  0  0  0  0  0
   -2.9496    1.5696   -0.9051 H   0  0  0  0  0  0  0  0  0  0  0  0
   -3.8788    1.3785    0.6121 H   0  0  0  0  0  0  0  0  0  0  0  0
   -4.6194    0.7787   -0.9537 H   0  0  0  0  0  0  0  0  0  0  0  0
   -4.0647   -0.4240    1.7174 H   0  0  0  0  0  0  0  0  0  0  0  0
   -2.7438   -1.6064    1.6037 H   0  0  0  0  0  0  0  0  0  0  0  0
   -4.2321   -1.9545    0.7057 H   0  0  0  0  0  0  0  0  0  0  0  0
   -3.4821   -0.6679   -2.0322 H   0  0  0  0  0  0  0  0  0  0  0  0
   -0.6984   -1.0999   -1.5521 H   0  0  0  0  0  0  0  0  0  0  0  0
    3.0304    1.2213    1.4664 H   0  0  0  0  0  0  0  0  0  0  0  0
    4.6366    0.4544   -1.5965 H   0  0  0  0  0  0  0  0  0  0  0  0
    4.7506   -1.0848   -0.6103 H   0  0  0  0  0  0  0  0  0  0  0  0
    5.5229    1.6728   -0.0046 H   0  0  0  0  0  0  0  0  0  0  0  0
    6.1153    0.1888    0.5114 H   0  0  0  0  0  0  0  0  0  0  0  0
  1  2  1  0
  2  3  1  0
  2  4  1  0
  2  5  1  0
  5  6  2  0
  5  7  1  0
  7  8  1  0
  8  9  2  0
  9 10  1  0
 10 11  1  0
 11 12  1  0
 12 13  1  0
 11 14  2  0
 14  8  1  0
  1 15  1  0
  1 16  1  0
  1 17  1  0
  3 18  1  0
  3 19  1  0
  3 20  1  0
  4 21  1  0
  7 22  1  0
 10 23  1  0
 12 24  1  0
 12 25  1  0
 13 26  1  0
 13 27  1  0
M  END
$$$$

     RDKit          3D

 27 27  0  0  0  0  0  0  0  0999 V2000
   -3.3970    0.1194    1.0070 C   0  0  0  0  0  0  0  0  0  0  0  0
   -3.0246    0.3693   -0.4327 C   0  0  0  0  0  0  0  0  0  0  0  0
   -3.2973   -0.8409   -1.3024 C   0  0  0  0  0  0  0  0  0  0  0  0
   -3.7404    1.4289   -0.9760 O   0  0  0  0  0  0  0  0  0  0  0  0
   -1.5705    0.6529   -0.5289 C   0  0  0  0  0  0  0  0  0  0  0  0
   -1.1689    1.7300   -1.0476 O   0  0  0  0  0  0  0  0  0  0  0  0
   -0.6464   -0.3265   -0.0188 N   0  0  0  0  0  0  0  0  0  0  0  0
    0.7420   -0.0434   -0.1167 C   0  0  0  0  0  0  0  0  0  0  0  0
    1.3567    1.0325   -0.6284 N   0  0  0  0  0  0  0  0  0  0  0  0
    2.6734    0.8615   -0.5046 N   0  0  0  0  0  0  0  0  0  0  0  0
    2.9094   -0.3248    0.0869 C   0  0  0  0  0  0  0  0  0  0  0  0
    4.2035   -0.9548    0.4362 C   0  0  0  0  0  0  0  0  0  0  0  0
    5.2877   -0.0546    0.0247 N   0  0  0  0  0  0  0  0  0  0  0  0
    1.7063   -0.8740    0.3215 N   0  0  0  0  0  0  0  0  0  0  0  0
   -3.2208   -0.9517    1.2294 H   0  0  0  0  0  0  0  0  0  0  0  0
   -2.6567    0.6844    1.6331 H   0  0  0  0  0  0  0  0  0  0  0  0
   -4.3897    0.4747    1.2788 H   0  0  0  0  0  0  0  0  0  0  0  0
   -3.2294   -0.4820   -2.3583 H   0  0  0  0  0  0  0  0  0  0  0  0
   -2.4642   -1.5589   -1.1769 H   0  0  0  0  0  0  0  0  0  0  0  0
   -4.2931   -1.2732   -1.1351 H   0  0  0  0  0  0  0  0  0  0  0  0
   -3.1211    2.0146   -1.4997 H   0  0  0  0  0  0  0  0  0  0  0  0
   -0.9996   -1.2099    0.4058 H   0  0  0  0  0  0  0  0  0  0  0  0
    3.3746    1.5632   -0.8294 H   0  0  0  0  0  0  0  0  0  0  0  0
    4.2779   -1.8912   -0.1639 H   0  0  0  0  0  0  0  0  0  0  0  0
    4.3178   -1.1479    1.5151 H   0  0  0  0  0  0  0  0  0  0  0  0
    5.3658    0.6933    0.7444 H   0  0  0  0  0  0  0  0  0  0  0  0
    5.0044    0.3091   -0.9137 H   0  0  0  0  0  0  0  0  0  0  0  0
  1  2  1  0
  2  3  1  0
  2  4  1  0
  2  5  1  0
  5  6  2  0
  5  7  1  0
  7  8  1  0
  8  9  2  0
  9 10  1  0
 10 11  1  0
 11 12  1  0
 12 13  1  0
 11 14  2  0
 14  8  1  0
  1 15  1  0
  1 16  1  0
  1 17  1  0
  3 18  1  0
  3 19  1  0
  3 20  1  0
  4 21  1  0
  7 22  1  0
 10 23  1  0
 12 24  1  0
 12 25  1  0
 13 26  1  0
 13 27  1  0
M  END
$$$$

     RDKit          3D

 27 27  0  0  0  0  0  0  0  0999 V2000
   -3.4817    1.0582    0.7758 C   0  0  0  0  0  0  0  0  0  0  0  0
   -2.9325   -0.0679   -0.0694 C   0  0  0  0  0  0  0  0  0  0  0  0
   -3.4607   -1.4222    0.3790 C   0  0  0  0  0  0  0  0  0  0  0  0
   -3.2265    0.2046   -1.3831 O   0  0  0  0  0  0  0  0  0  0  0  0
   -1.4559   -0.0573    0.0968 C   0  0  0  0  0  0  0  0  0  0  0  0
   -0.9344   -0.2813    1.2174 O   0  0  0  0  0  0  0  0  0  0  0  0
   -0.5914    0.2043   -0.9972 N   0  0  0  0  0  0  0  0  0  0  0  0
    0.8274    0.2100   -0.8172 C   0  0  0  0  0  0  0  0  0  0  0  0
    1.7795    0.4363   -1.7335 N   0  0  0  0  0  0  0  0  0  0  0  0
    2.9800    0.3646   -1.2247 N   0  0  0  0  0  0  0  0  0  0  0  0
    2.8188    0.0791    0.0833 C   0  0  0  0  0  0  0  0  0  0  0  0
    3.9060   -0.1011    1.0812 C   0  0  0  0  0  0  0  0  0  0  0  0
    5.1804    0.0756    0.4410 N   0  0  0  0  0  0  0  0  0  0  0  0
    1.4877   -0.0159    0.3323 N   0  0  0  0  0  0  0  0  0  0  0  0
   -2.8415    1.2406    1.6673 H   0  0  0  0  0  0  0  0  0  0  0  0
   -3.5319    2.0031    0.2099 H   0  0  0  0  0  0  0  0  0  0  0  0
   -4.5026    0.8348    1.1665 H   0  0  0  0  0  0  0  0  0  0  0  0
   -2.7681   -2.1815   -0.0398 H   0  0  0  0  0  0  0  0  0  0  0  0
   -3.4544   -1.4194    1.4937 H   0  0  0  0  0  0  0  0  0  0  0  0
   -4.4936   -1.5136   -0.0360 H   0  0  0  0  0  0  0  0  0  0  0  0
   -3.1731   -0.6302   -1.9352 H   0  0  0  0  0  0  0  0  0  0  0  0
   -1.0133    0.3914   -1.9310 H   0  0  0  0  0  0  0  0  0  0  0  0
    3.9288    0.4861   -1.6529 H   0  0  0  0  0  0  0  0  0  0  0  0
    3.8095   -1.1201    1.5305 H   0  0  0  0  0  0  0  0  0  0  0  0
    3.7466    0.6608    1.8869 H   0  0  0  0  0  0  0  0  0  0  0  0
    5.9347   -0.5157    0.8159 H   0  0  0  0  0  0  0  0  0  0  0  0
    5.4623    1.0767    0.5656 H   0  0  0  0  0  0  0  0  0  0  0  0
  1  2  1  0
  2  3  1  0
  2  4  1  0
  2  5  1  0
  5  6  2  0
  5  7  1  0
  7  8  1  0
  8  9  2  0
  9 10  1  0
 10 11  1  0
 11 12  1  0
 12 13  1  0
 11 14  2  0
 14  8  1  0
  1 15  1  0
  1 16  1  0
  1 17  1  0
  3 18  1  0
  3 19  1  0
  3 20  1  0
  4 21  1  0
  7 22  1  0
 10 23  1  0
 12 24  1  0
 12 25  1  0
 13 26  1  0
 13 27  1  0
M  END
$$$$

     RDKit          3D

 27 27  0  0  0  0  0  0  0  0999 V2000
   -3.3093    1.4393    1.2001 C   0  0  0  0  0  0  0  0  0  0  0  0
   -2.7948    0.4006    0.2179 C   0  0  0  0  0  0  0  0  0  0  0  0
   -3.7034   -0.8221    0.2064 C   0  0  0  0  0  0  0  0  0  0  0  0
   -2.7944    1.0304   -1.0442 O   0  0  0  0  0  0  0  0  0  0  0  0
   -1.4435   -0.0609    0.5620 C   0  0  0  0  0  0  0  0  0  0  0  0
   -1.2427   -0.6414    1.6387 O   0  0  0  0  0  0  0  0  0  0  0  0
   -0.3813    0.1563   -0.3298 N   0  0  0  0  0  0  0  0  0  0  0  0
    0.9254   -0.2762   -0.0246 C   0  0  0  0  0  0  0  0  0  0  0  0
    1.3547   -0.9203    1.0814 N   0  0  0  0  0  0  0  0  0  0  0  0
    2.6476   -1.1540    0.9942 N   0  0  0  0  0  0  0  0  0  0  0  0
    3.0562   -0.6470   -0.1972 C   0  0  0  0  0  0  0  0  0  0  0  0
    4.4258   -0.6533   -0.7710 C   0  0  0  0  0  0  0  0  0  0  0  0
    5.0767    0.5918   -0.3472 N   0  0  0  0  0  0  0  0  0  0  0  0
    1.9936   -0.1076   -0.8215 N   0  0  0  0  0  0  0  0  0  0  0  0
   -2.7501    1.4172    2.1464 H   0  0  0  0  0  0  0  0  0  0  0  0
   -3.2625    2.4704    0.7748 H   0  0  0  0  0  0  0  0  0  0  0  0
   -4.3764    1.2062    1.4028 H   0  0  0  0  0  0  0  0  0  0  0  0
   -3.9019   -1.0698   -0.8454 H   0  0  0  0  0  0  0  0  0  0  0  0
   -3.1998   -1.7114    0.6531 H   0  0  0  0  0  0  0  0  0  0  0  0
   -4.5922   -0.6139    0.8086 H   0  0  0  0  0  0  0  0  0  0  0  0
   -3.6603    0.8974   -1.4858 H   0  0  0  0  0  0  0  0  0  0  0  0
   -0.5776    0.6453   -1.2251 H   0  0  0  0  0  0  0  0  0  0  0  0
    3.2832   -1.6173    1.6491 H   0  0  0  0  0  0  0  0  0  0  0  0
    5.0152   -1.5237   -0.4036 H   0  0  0  0  0  0  0  0  0  0  0  0
    4.3302   -0.7170   -1.8712 H   0  0  0  0  0  0  0  0  0  0  0  0
    4.4142    1.2164    0.1643 H   0  0  0  0  0  0  0  0  0  0  0  0
    5.4675    1.0645   -1.1663 H   0  0  0  0  0  0  0  0  0  0  0  0
  1  2  1  0
  2  3  1  0
  2  4  1  0
  2  5  1  0
  5  6  2  0
  5  7  1  0
  7  8  1  0
  8  9  2  0
  9 10  1  0
 10 11  1  0
 11 12  1  0
 12 13  1  0
 11 14  2  0
 14  8  1  0
  1 15  1  0
  1 16  1  0
  1 17  1  0
  3 18  1  0
  3 19  1  0
  3 20  1  0
  4 21  1  0
  7 22  1  0
 10 23  1  0
 12 24  1  0
 12 25  1  0
 13 26  1  0
 13 27  1  0
M  END
$$$$

     RDKit          3D

 27 27  0  0  0  0  0  0  0  0999 V2000
   -3.5492    1.0504   -0.4042 C   0  0  0  0  0  0  0  0  0  0  0  0
   -2.8093   -0.2583   -0.6050 C   0  0  0  0  0  0  0  0  0  0  0  0
   -3.1588   -0.7539   -1.9894 C   0  0  0  0  0  0  0  0  0  0  0  0
   -3.2834   -1.2006    0.3045 O   0  0  0  0  0  0  0  0  0  0  0  0
   -1.3648   -0.0845   -0.4259 C   0  0  0  0  0  0  0  0  0  0  0  0
   -0.7141    0.7131   -1.1321 O   0  0  0  0  0  0  0  0  0  0  0  0
   -0.6618   -0.8197    0.5580 N   0  0  0  0  0  0  0  0  0  0  0  0
    0.7375   -0.6875    0.7709 C   0  0  0  0  0  0  0  0  0  0  0  0
    1.4557   -1.3579    1.6879 N   0  0  0  0  0  0  0  0  0  0  0  0
    2.7270   -1.0032    1.6247 N   0  0  0  0  0  0  0  0  0  0  0  0
    2.8567   -0.0788    0.6467 C   0  0  0  0  0  0  0  0  0  0  0  0
    4.0987    0.6124    0.2079 C   0  0  0  0  0  0  0  0  0  0  0  0
    5.2213    0.1708    0.9760 N   0  0  0  0  0  0  0  0  0  0  0  0
    1.6227    0.0977    0.1382 N   0  0  0  0  0  0  0  0  0  0  0  0
   -3.7973    1.5569   -1.3384 H   0  0  0  0  0  0  0  0  0  0  0  0
   -4.5104    0.8611    0.1375 H   0  0  0  0  0  0  0  0  0  0  0  0
   -2.9121    1.7083    0.2198 H   0  0  0  0  0  0  0  0  0  0  0  0
   -3.0805   -1.8510   -2.0763 H   0  0  0  0  0  0  0  0  0  0  0  0
   -4.2058   -0.4848   -2.2385 H   0  0  0  0  0  0  0  0  0  0  0  0
   -2.5195   -0.2884   -2.7670 H   0  0  0  0  0  0  0  0  0  0  0  0
   -4.1243   -0.9075    0.7312 H   0  0  0  0  0  0  0  0  0  0  0  0
   -1.2165   -1.4787    1.1370 H   0  0  0  0  0  0  0  0  0  0  0  0
    3.4758   -1.3894    2.2386 H   0  0  0  0  0  0  0  0  0  0  0  0
    3.9523    1.7167    0.2399 H   0  0  0  0  0  0  0  0  0  0  0  0
    4.3043    0.3764   -0.8679 H   0  0  0  0  0  0  0  0  0  0  0  0
    6.0775    0.2311    0.3803 H   0  0  0  0  0  0  0  0  0  0  0  0
    5.3783    0.7282    1.8457 H   0  0  0  0  0  0  0  0  0  0  0  0
  1  2  1  0
  2  3  1  0
  2  4  1  0
  2  5  1  0
  5  6  2  0
  5  7  1  0
  7  8  1  0
  8  9  2  0
  9 10  1  0
 10 11  1  0
 11 12  1  0
 12 13  1  0
 11 14  2  0
 14  8  1  0
  1 15  1  0
  1 16  1  0
  1 17  1  0
  3 18  1  0
  3 19  1  0
  3 20  1  0
  4 21  1  0
  7 22  1  0
 10 23  1  0
 12 24  1  0
 12 25  1  0
 13 26  1  0
 13 27  1  0
M  END
$$$$

     RDKit          3D

 27 27  0  0  0  0  0  0  0  0999 V2000
   -3.3764   -0.0322    0.9014 C   0  0  0  0  0  0  0  0  0  0  0  0
   -2.7579    0.2766   -0.4614 C   0  0  0  0  0  0  0  0  0  0  0  0
   -3.0920    1.7217   -0.7897 C   0  0  0  0  0  0  0  0  0  0  0  0
   -3.1825   -0.5967   -1.4318 O   0  0  0  0  0  0  0  0  0  0  0  0
   -1.2758    0.1742   -0.2648 C   0  0  0  0  0  0  0  0  0  0  0  0
   -0.6719    0.8732    0.5656 O   0  0  0  0  0  0  0  0  0  0  0  0
   -0.5526   -0.7398   -1.0438 N   0  0  0  0  0  0  0  0  0  0  0  0
    0.8706   -0.9067   -0.9246 C   0  0  0  0  0  0  0  0  0  0  0  0
    1.6453   -1.7529   -1.6246 N   0  0  0  0  0  0  0  0  0  0  0  0
    2.9059   -1.6268   -1.2416 N   0  0  0  0  0  0  0  0  0  0  0  0
    2.9679   -0.6803   -0.2705 C   0  0  0  0  0  0  0  0  0  0  0  0
    4.1548   -0.1934    0.4631 C   0  0  0  0  0  0  0  0  0  0  0  0
    3.7567    0.8099    1.3993 N   0  0  0  0  0  0  0  0  0  0  0  0
    1.7087   -0.2574   -0.0972 N   0  0  0  0  0  0  0  0  0  0  0  0
   -4.4784    0.0842    0.8726 H   0  0  0  0  0  0  0  0  0  0  0  0
   -3.1061   -1.0611    1.2188 H   0  0  0  0  0  0  0  0  0  0  0  0
   -2.8852    0.6594    1.6208 H   0  0  0  0  0  0  0  0  0  0  0  0
   -3.1164    1.8916   -1.8843 H   0  0  0  0  0  0  0  0  0  0  0  0
   -2.3543    2.4299   -0.3494 H   0  0  0  0  0  0  0  0  0  0  0  0
   -4.0994    1.9918   -0.4097 H   0  0  0  0  0  0  0  0  0  0  0  0
   -3.4078   -1.4936   -1.1083 H   0  0  0  0  0  0  0  0  0  0  0  0
   -1.0542   -1.3292   -1.7425 H   0  0  0  0  0  0  0  0  0  0  0  0
    3.7626   -2.1317   -1.5793 H   0  0  0  0  0  0  0  0  0  0  0  0
    4.7385   -1.0174    0.9132 H   0  0  0  0  0  0  0  0  0  0  0  0
    4.8632    0.3027   -0.2627 H   0  0  0  0  0  0  0  0  0  0  0  0
    4.3942    0.8589    2.2478 H   0  0  0  0  0  0  0  0  0  0  0  0
    3.6425    1.7450    0.9448 H   0  0  0  0  0  0  0  0  0  0  0  0
  1  2  1  0
  2  3  1  0
  2  4  1  0
  2  5  1  0
  5  6  2  0
  5  7  1  0
  7  8  1  0
  8  9  2  0
  9 10  1  0
 10 11  1  0
 11 12  1  0
 12 13  1  0
 11 14  2  0
 14  8  1  0
  1 15  1  0
  1 16  1  0
  1 17  1  0
  3 18  1  0
  3 19  1  0
  3 20  1  0
  4 21  1  0
  7 22  1  0
 10 23  1  0
 12 24  1  0
 12 25  1  0
 13 26  1  0
 13 27  1  0
M  END
$$$$

     RDKit          3D

 27 27  0  0  0  0  0  0  0  0999 V2000
   -3.2216   -1.5432    0.6407 C   0  0  0  0  0  0  0  0  0  0  0  0
   -2.7737   -0.2044    0.0980 C   0  0  0  0  0  0  0  0  0  0  0  0
   -3.3736    0.9306    0.9318 C   0  0  0  0  0  0  0  0  0  0  0  0
   -3.2035   -0.0278   -1.2116 O   0  0  0  0  0  0  0  0  0  0  0  0
   -1.3132   -0.0369    0.1460 C   0  0  0  0  0  0  0  0  0  0  0  0
   -0.6658   -0.1503    1.2427 O   0  0  0  0  0  0  0  0  0  0  0  0
   -0.6137    0.2565   -1.0526 N   0  0  0  0  0  0  0  0  0  0  0  0
    0.8069    0.4297   -1.0647 C   0  0  0  0  0  0  0  0  0  0  0  0
    1.5979    0.7078   -2.1130 N   0  0  0  0  0  0  0  0  0  0  0  0
    2.8267    0.7791   -1.6731 N   0  0  0  0  0  0  0  0  0  0  0  0
    2.8902    0.5555   -0.3472 C   0  0  0  0  0  0  0  0  0  0  0  0
    4.1060    0.5546    0.4981 C   0  0  0  0  0  0  0  0  0  0  0  0
    4.7128   -0.7606    0.5809 N   0  0  0  0  0  0  0  0  0  0  0  0
    1.6176    0.3365    0.0293 N   0  0  0  0  0  0  0  0  0  0  0  0
   -3.3435   -2.2216   -0.2294 H   0  0  0  0  0  0  0  0  0  0  0  0
   -4.2475   -1.4780    1.1053 H   0  0  0  0  0  0  0  0  0  0  0  0
   -2.4806   -1.9158    1.3573 H   0  0  0  0  0  0  0  0  0  0  0  0
   -4.3280    0.5798    1.3380 H   0  0  0  0  0  0  0  0  0  0  0  0
   -3.4451    1.8044    0.2719 H   0  0  0  0  0  0  0  0  0  0  0  0
   -2.6813    1.2122    1.7578 H   0  0  0  0  0  0  0  0  0  0  0  0
   -3.5849   -0.8380   -1.5962 H   0  0  0  0  0  0  0  0  0  0  0  0
   -1.1049    0.3569   -1.9675 H   0  0  0  0  0  0  0  0  0  0  0  0
    3.6946    0.9842   -2.2496 H   0  0  0  0  0  0  0  0  0  0  0  0
    3.8888    0.9250    1.5322 H   0  0  0  0  0  0  0  0  0  0  0  0
    4.8775    1.2420    0.0906 H   0  0  0  0  0  0  0  0  0  0  0  0
    5.3538   -0.9533   -0.2260 H   0  0  0  0  0  0  0  0  0  0  0  0
    4.0082   -1.5248    0.6010 H   0  0  0  0  0  0  0  0  0  0  0  0
  1  2  1  0
  2  3  1  0
  2  4  1  0
  2  5  1  0
  5  6  2  0
  5  7  1  0
  7  8  1  0
  8  9  2  0
  9 10  1  0
 10 11  1  0
 11 12  1  0
 12 13  1  0
 11 14  2  0
 14  8  1  0
  1 15  1  0
  1 16  1  0
  1 17  1  0
  3 18  1  0
  3 19  1  0
  3 20  1  0
  4 21  1  0
  7 22  1  0
 10 23  1  0
 12 24  1  0
 12 25  1  0
 13 26  1  0
 13 27  1  0
M  END
$$$$
