
     RDKit          3D

 30 30  0  0  0  0  0  0  0  0999 V2000
   -4.0692   -0.5927   -0.5655 C   0  0  0  0  0  0  0  0  0  0  0  0
   -3.6432    0.7783   -0.1211 C   0  0  0  0  0  0  0  0  0  0  0  0
   -2.2925    0.7896    0.5072 C   0  0  0  0  0  0  0  0  0  0  0  0
   -1.2374    0.3665   -0.3747 N   0  0  0  0  0  0  0  0  0  0  0  0
    0.0016    0.5757    0.3905 C   0  0  0  0  0  0  0  0  0  0  0  0
    1.2151    0.3642   -0.4382 C   0  0  2  0  0  0  0  0  0  0  0  0
    1.4234   -0.9097   -0.9983 N   0  0  0  0  0  0  0  0  0  0  0  0
    2.3072   -1.6186   -0.1557 C   0  0  0  0  0  0  0  0  0  0  0  0
    3.1657   -0.5944    0.5123 C   0  0  1  0  0  0  0  0  0  0  0  0
    4.4154   -0.6129   -0.0790 O   0  0  0  0  0  0  0  0  0  0  0  0
    2.4588    0.7128    0.3490 C   0  0  1  0  0  0  0  0  0  0  0  0
    3.2377    1.6686   -0.3080 O   0  0  0  0  0  0  0  0  0  0  0  0
   -3.2462   -1.3079   -0.7372 H   0  0  0  0  0  0  0  0  0  0  0  0
   -4.6746   -0.5070   -1.4989 H   0  0  0  0  0  0  0  0  0  0  0  0
   -4.6962   -1.0272    0.2740 H   0  0  0  0  0  0  0  0  0  0  0  0
   -3.7029    1.4623   -1.0037 H   0  0  0  0  0  0  0  0  0  0  0  0
   -4.3988    1.1479    0.6154 H   0  0  0  0  0  0  0  0  0  0  0  0
   -2.0384    1.8396    0.8342 H   0  0  0  0  0  0  0  0  0  0  0  0
   -2.2914    0.1378    1.4121 H   0  0  0  0  0  0  0  0  0  0  0  0
   -1.3549   -0.6804   -0.5241 H   0  0  0  0  0  0  0  0  0  0  0  0
   -0.0253    1.6169    0.7834 H   0  0  0  0  0  0  0  0  0  0  0  0
   -0.0873   -0.0910    1.2666 H   0  0  0  0  0  0  0  0  0  0  0  0
    1.1351    1.1383   -1.2831 H   0  0  0  0  0  0  0  0  0  0  0  0
    0.6257   -1.3979   -1.3974 H   0  0  0  0  0  0  0  0  0  0  0  0
    1.7825   -2.2596    0.5839 H   0  0  0  0  0  0  0  0  0  0  0  0
    2.9314   -2.3401   -0.7464 H   0  0  0  0  0  0  0  0  0  0  0  0
    3.2439   -0.8438    1.6124 H   0  0  0  0  0  0  0  0  0  0  0  0
    4.8265   -1.4795    0.1604 H   0  0  0  0  0  0  0  0  0  0  0  0
    2.1489    1.1125    1.3579 H   0  0  0  0  0  0  0  0  0  0  0  0
    2.8393    2.5515   -0.1950 H   0  0  0  0  0  0  0  0  0  0  0  0
  1  2  1  0
  2  3  1  0
  3  4  1  0
  4  5  1  0
  5  6  1  0
  6  7  1  0
  7  8  1  0
  8  9  1  0
  9 10  1  0
  9 11  1  0
 11 12  1  0
 11  6  1  0
  1 13  1  0
  1 14  1  0
  1 15  1  0
  2 16  1  0
  2 17  1  0
  3 18  1  0
  3 19  1  0
  4 20  1  0
  5 21  1  0
  5 22  1  0
  6 23  1  6
  7 24  1  0
  8 25  1  0
  8 26  1  0
  9 27  1  1
 10 28  1  0
 11 29  1  1
 12 30  1  0
M  END
$$$$

     RDKit          3D

 30 30  0  0  0  0  0  0  0  0999 V2000
   -3.5893    0.6604    0.7316 C   0  0  0  0  0  0  0  0  0  0  0  0
   -3.3425    0.8567   -0.7636 C   0  0  0  0  0  0  0  0  0  0  0  0
   -1.8335    0.6314   -0.9591 C   0  0  0  0  0  0  0  0  0  0  0  0
   -1.5684   -0.7005   -0.5251 N   0  0  0  0  0  0  0  0  0  0  0  0
   -0.2350   -1.1736   -0.6681 C   0  0  0  0  0  0  0  0  0  0  0  0
    0.7968   -0.5381    0.1899 C   0  0  2  0  0  0  0  0  0  0  0  0
    0.9297    0.8904   -0.0329 N   0  0  0  0  0  0  0  0  0  0  0  0
    2.3083    1.1531    0.3827 C   0  0  0  0  0  0  0  0  0  0  0  0
    3.0256    0.0611   -0.4218 C   0  0  1  0  0  0  0  0  0  0  0  0
    4.3134   -0.0204    0.0333 O   0  0  0  0  0  0  0  0  0  0  0  0
    2.1570   -1.1294   -0.1159 C   0  0  1  0  0  0  0  0  0  0  0  0
    2.6499   -1.8073    1.0107 O   0  0  0  0  0  0  0  0  0  0  0  0
   -3.3015   -0.3782    1.0157 H   0  0  0  0  0  0  0  0  0  0  0  0
   -4.6685    0.7741    0.8861 H   0  0  0  0  0  0  0  0  0  0  0  0
   -3.0326    1.4390    1.2781 H   0  0  0  0  0  0  0  0  0  0  0  0
   -3.8954    0.0734   -1.3133 H   0  0  0  0  0  0  0  0  0  0  0  0
   -3.6308    1.8829   -1.0455 H   0  0  0  0  0  0  0  0  0  0  0  0
   -1.5957    0.8466   -2.0041 H   0  0  0  0  0  0  0  0  0  0  0  0
   -1.3614    1.4094   -0.3061 H   0  0  0  0  0  0  0  0  0  0  0  0
   -2.1867   -1.3410   -1.0870 H   0  0  0  0  0  0  0  0  0  0  0  0
    0.0953   -1.1605   -1.7323 H   0  0  0  0  0  0  0  0  0  0  0  0
   -0.2535   -2.2644   -0.4002 H   0  0  0  0  0  0  0  0  0  0  0  0
    0.5638   -0.6888    1.2781 H   0  0  0  0  0  0  0  0  0  0  0  0
    0.8630    1.1068   -1.0766 H   0  0  0  0  0  0  0  0  0  0  0  0
    2.6663    2.1506    0.0903 H   0  0  0  0  0  0  0  0  0  0  0  0
    2.4056    0.9144    1.4393 H   0  0  0  0  0  0  0  0  0  0  0  0
    2.9704    0.2557   -1.5101 H   0  0  0  0  0  0  0  0  0  0  0  0
    4.4312   -0.5355    0.8611 H   0  0  0  0  0  0  0  0  0  0  0  0
    2.1254   -1.8703   -0.9414 H   0  0  0  0  0  0  0  0  0  0  0  0
    2.1930   -1.4980    1.8443 H   0  0  0  0  0  0  0  0  0  0  0  0
  1  2  1  0
  2  3  1  0
  3  4  1  0
  4  5  1  0
  5  6  1  0
  6  7  1  0
  7  8  1  0
  8  9  1  0
  9 10  1  0
  9 11  1  0
 11 12  1  0
 11  6  1  0
  1 13  1  0
  1 14  1  0
  1 15  1  0
  2 16  1  0
  2 17  1  0
  3 18  1  0
  3 19  1  0
  4 20  1  0
  5 21  1  0
  5 22  1  0
  6 23  1  1
  7 24  1  0
  8 25  1  0
  8 26  1  0
  9 27  1  6
 10 28  1  0
 11 29  1  6
 12 30  1  0
M  END
$$$$

     RDKit          3D

 30 30  0  0  0  0  0  0  0  0999 V2000
    4.4887    0.5562    0.4069 C   0  0  0  0  0  0  0  0  0  0  0  0
    3.0032    0.7133    0.0637 C   0  0  0  0  0  0  0  0  0  0  0  0
    2.4939   -0.6614   -0.2556 C   0  0  0  0  0  0  0  0  0  0  0  0
    1.1173   -0.7086   -0.5965 N   0  0  0  0  0  0  0  0  0  0  0  0
    0.2090   -0.4180    0.4651 C   0  0  0  0  0  0  0  0  0  0  0  0
   -1.1997   -0.5308   -0.0797 C   0  0  2  0  0  0  0  0  0  0  0  0
   -1.3066    0.4479   -1.1635 N   0  0  0  0  0  0  0  0  0  0  0  0
   -2.7460    0.5216   -1.3553 C   0  0  0  0  0  0  0  0  0  0  0  0
   -3.2360    0.6676    0.0798 C   0  0  1  0  0  0  0  0  0  0  0  0
   -4.4714    0.0739    0.2347 O   0  0  0  0  0  0  0  0  0  0  0  0
   -2.2282   -0.0592    0.9230 C   0  0  1  0  0  0  0  0  0  0  0  0
   -2.7451   -1.1510    1.5893 O   0  0  0  0  0  0  0  0  0  0  0  0
    4.8432    1.4961    0.8462 H   0  0  0  0  0  0  0  0  0  0  0  0
    4.5257   -0.2663    1.1768 H   0  0  0  0  0  0  0  0  0  0  0  0
    5.0414    0.2630   -0.5252 H   0  0  0  0  0  0  0  0  0  0  0  0
    2.9312    1.3540   -0.8385 H   0  0  0  0  0  0  0  0  0  0  0  0
    2.5389    1.1826    0.9276 H   0  0  0  0  0  0  0  0  0  0  0  0
    3.0770   -1.0636   -1.1280 H   0  0  0  0  0  0  0  0  0  0  0  0
    2.7427   -1.3809    0.5782 H   0  0  0  0  0  0  0  0  0  0  0  0
    0.8217   -1.4103   -1.2745 H   0  0  0  0  0  0  0  0  0  0  0  0
    0.2982    0.6492    0.8130 H   0  0  0  0  0  0  0  0  0  0  0  0
    0.2846   -1.1236    1.3202 H   0  0  0  0  0  0  0  0  0  0  0  0
   -1.4089   -1.5602   -0.4532 H   0  0  0  0  0  0  0  0  0  0  0  0
   -0.7922    0.1659   -2.0115 H   0  0  0  0  0  0  0  0  0  0  0  0
   -2.9543    1.4192   -1.9491 H   0  0  0  0  0  0  0  0  0  0  0  0
   -3.1722   -0.4171   -1.7644 H   0  0  0  0  0  0  0  0  0  0  0  0
   -3.2150    1.7453    0.3577 H   0  0  0  0  0  0  0  0  0  0  0  0
   -5.1573    0.7921    0.2550 H   0  0  0  0  0  0  0  0  0  0  0  0
   -1.7068    0.5942    1.6410 H   0  0  0  0  0  0  0  0  0  0  0  0
   -2.0770   -1.8909    1.7166 H   0  0  0  0  0  0  0  0  0  0  0  0
  1  2  1  0
  2  3  1  0
  3  4  1  0
  4  5  1  0
  5  6  1  0
  6  7  1  0
  7  8  1  0
  8  9  1  0
  9 10  1  0
  9 11  1  0
 11 12  1  0
 11  6  1  0
  1 13  1  0
  1 14  1  0
  1 15  1  0
  2 16  1  0
  2 17  1  0
  3 18  1  0
  3 19  1  0
  4 20  1  0
  5 21  1  0
  5 22  1  0
  6 23  1  6
  7 24  1  0
  8 25  1  0
  8 26  1  0
  9 27  1  1
 10 28  1  0
 11 29  1  1
 12 30  1  0
M  END
$$$$

     RDKit          3D

 30 30  0  0  0  0  0  0  0  0999 V2000
    4.7377    0.0025    0.0924 C   0  0  0  0  0  0  0  0  0  0  0  0
    3.4740   -0.7134    0.5043 C   0  0  0  0  0  0  0  0  0  0  0  0
    2.3098    0.1638    0.0959 C   0  0  0  0  0  0  0  0  0  0  0  0
    1.0324   -0.4628    0.4625 N   0  0  0  0  0  0  0  0  0  0  0  0
   -0.0012    0.4572    0.0279 C   0  0  0  0  0  0  0  0  0  0  0  0
   -1.3811   -0.0419    0.3330 C   0  0  2  0  0  0  0  0  0  0  0  0
   -1.7092   -1.2888   -0.2819 N   0  0  0  0  0  0  0  0  0  0  0  0
   -3.0195   -1.1877   -0.8560 C   0  0  0  0  0  0  0  0  0  0  0  0
   -3.6264    0.1119   -0.3204 C   0  0  1  0  0  0  0  0  0  0  0  0
   -4.0805   -0.0667    0.9854 O   0  0  0  0  0  0  0  0  0  0  0  0
   -2.3626    0.9691   -0.2516 C   0  0  1  0  0  0  0  0  0  0  0  0
   -2.5332    2.0686    0.5609 O   0  0  0  0  0  0  0  0  0  0  0  0
    4.5756    1.0868    0.2177 H   0  0  0  0  0  0  0  0  0  0  0  0
    5.6280   -0.3721    0.6385 H   0  0  0  0  0  0  0  0  0  0  0  0
    4.8578   -0.1605   -1.0089 H   0  0  0  0  0  0  0  0  0  0  0  0
    3.4522   -0.7806    1.6125 H   0  0  0  0  0  0  0  0  0  0  0  0
    3.3814   -1.7198    0.0498 H   0  0  0  0  0  0  0  0  0  0  0  0
    2.4167    1.1525    0.5783 H   0  0  0  0  0  0  0  0  0  0  0  0
    2.3030    0.3514   -0.9970 H   0  0  0  0  0  0  0  0  0  0  0  0
    0.9213   -1.3572   -0.0639 H   0  0  0  0  0  0  0  0  0  0  0  0
    0.1232    0.6139   -1.0698 H   0  0  0  0  0  0  0  0  0  0  0  0
    0.1485    1.3945    0.5982 H   0  0  0  0  0  0  0  0  0  0  0  0
   -1.4913   -0.1044    1.4442 H   0  0  0  0  0  0  0  0  0  0  0  0
   -0.9841   -1.5944   -0.9467 H   0  0  0  0  0  0  0  0  0  0  0  0
   -3.6613   -2.0545   -0.6473 H   0  0  0  0  0  0  0  0  0  0  0  0
   -2.9410   -1.0200   -1.9706 H   0  0  0  0  0  0  0  0  0  0  0  0
   -4.3788    0.5304   -0.9876 H   0  0  0  0  0  0  0  0  0  0  0  0
   -3.5297    0.4141    1.6363 H   0  0  0  0  0  0  0  0  0  0  0  0
   -2.0148    1.1956   -1.2652 H   0  0  0  0  0  0  0  0  0  0  0  0
   -1.6469    2.4126    0.8293 H   0  0  0  0  0  0  0  0  0  0  0  0
  1  2  1  0
  2  3  1  0
  3  4  1  0
  4  5  1  0
  5  6  1  0
  6  7  1  0
  7  8  1  0
  8  9  1  0
  9 10  1  0
  9 11  1  0
 11 12  1  0
 11  6  1  0
  1 13  1  0
  1 14  1  0
  1 15  1  0
  2 16  1  0
  2 17  1  0
  3 18  1  0
  3 19  1  0
  4 20  1  0
  5 21  1  0
  5 22  1  0
  6 23  1  1
  7 24  1  0
  8 25  1  0
  8 26  1  0
  9 27  1  6
 10 28  1  0
 11 29  1  6
 12 30  1  0
M  END
$$$$

     RDKit          3D

 30 30  0  0  0  0  0  0  0  0999 V2000
    4.5834    0.1463   -0.5450 C   0  0  0  0  0  0  0  0  0  0  0  0
    3.1042    0.5197   -0.4711 C   0  0  0  0  0  0  0  0  0  0  0  0
    2.4815   -0.1870    0.7063 C   0  0  0  0  0  0  0  0  0  0  0  0
    1.0916    0.1727    0.7928 N   0  0  0  0  0  0  0  0  0  0  0  0
    0.3015   -0.3603   -0.2900 C   0  0  0  0  0  0  0  0  0  0  0  0
   -1.1177    0.1044   -0.0720 C   0  0  2  0  0  0  0  0  0  0  0  0
   -1.6826   -0.3450    1.1900 N   0  0  0  0  0  0  0  0  0  0  0  0
   -3.0789    0.0652    0.9425 C   0  0  0  0  0  0  0  0  0  0  0  0
   -3.3544   -0.6880   -0.3348 C   0  0  1  0  0  0  0  0  0  0  0  0
   -4.4639   -0.1991   -1.0146 O   0  0  0  0  0  0  0  0  0  0  0  0
   -2.0790   -0.3924   -1.1322 C   0  0  1  0  0  0  0  0  0  0  0  0
   -2.3522    0.6541   -2.0382 O   0  0  0  0  0  0  0  0  0  0  0  0
    4.6980   -0.9447   -0.4613 H   0  0  0  0  0  0  0  0  0  0  0  0
    5.0995    0.6302    0.3213 H   0  0  0  0  0  0  0  0  0  0  0  0
    5.0449    0.5263   -1.4858 H   0  0  0  0  0  0  0  0  0  0  0  0
    2.6016    0.2004   -1.4178 H   0  0  0  0  0  0  0  0  0  0  0  0
    3.0566    1.6186   -0.3944 H   0  0  0  0  0  0  0  0  0  0  0  0
    2.9534    0.1005    1.6648 H   0  0  0  0  0  0  0  0  0  0  0  0
    2.5296   -1.2963    0.5737 H   0  0  0  0  0  0  0  0  0  0  0  0
    0.9166    1.1601    0.9916 H   0  0  0  0  0  0  0  0  0  0  0  0
    0.3568   -1.4645   -0.2396 H   0  0  0  0  0  0  0  0  0  0  0  0
    0.6138   -0.0198   -1.2788 H   0  0  0  0  0  0  0  0  0  0  0  0
   -1.1645    1.2207   -0.0360 H   0  0  0  0  0  0  0  0  0  0  0  0
   -1.6998   -1.3912    1.1804 H   0  0  0  0  0  0  0  0  0  0  0  0
   -3.0155    1.1426    0.7077 H   0  0  0  0  0  0  0  0  0  0  0  0
   -3.7425   -0.1895    1.7735 H   0  0  0  0  0  0  0  0  0  0  0  0
   -3.4145   -1.7712   -0.2000 H   0  0  0  0  0  0  0  0  0  0  0  0
   -4.5198    0.7585   -0.8352 H   0  0  0  0  0  0  0  0  0  0  0  0
   -1.7046   -1.2937   -1.6510 H   0  0  0  0  0  0  0  0  0  0  0  0
   -2.0431    1.5226   -1.7230 H   0  0  0  0  0  0  0  0  0  0  0  0
  1  2  1  0
  2  3  1  0
  3  4  1  0
  4  5  1  0
  5  6  1  0
  6  7  1  0
  7  8  1  0
  8  9  1  0
  9 10  1  0
  9 11  1  0
 11 12  1  0
 11  6  1  0
  1 13  1  0
  1 14  1  0
  1 15  1  0
  2 16  1  0
  2 17  1  0
  3 18  1  0
  3 19  1  0
  4 20  1  0
  5 21  1  0
  5 22  1  0
  6 23  1  1
  7 24  1  0
  8 25  1  0
  8 26  1  0
  9 27  1  1
 10 28  1  0
 11 29  1  6
 12 30  1  0
M  END
$$$$

     RDKit          3D

 30 30  0  0  0  0  0  0  0  0999 V2000
    4.7593    0.2355    0.4823 C   0  0  0  0  0  0  0  0  0  0  0  0
    3.5091    0.0976   -0.3648 C   0  0  0  0  0  0  0  0  0  0  0  0
    2.2745   -0.0561    0.5038 C   0  0  0  0  0  0  0  0  0  0  0  0
    1.1299   -0.2002   -0.3868 N   0  0  0  0  0  0  0  0  0  0  0  0
   -0.0647   -0.5179    0.3708 C   0  0  0  0  0  0  0  0  0  0  0  0
   -1.2212   -0.6882   -0.5909 C   0  0  2  0  0  0  0  0  0  0  0  0
   -1.4829    0.5097   -1.3468 N   0  0  0  0  0  0  0  0  0  0  0  0
   -2.5051    1.2656   -0.6537 C   0  0  0  0  0  0  0  0  0  0  0  0
   -2.8690    0.4978    0.5879 C   0  0  1  0  0  0  0  0  0  0  0  0
   -4.2311    0.5830    0.8690 O   0  0  0  0  0  0  0  0  0  0  0  0
   -2.4998   -0.9112    0.1769 C   0  0  1  0  0  0  0  0  0  0  0  0
   -3.4437   -1.4169   -0.7461 O   0  0  0  0  0  0  0  0  0  0  0  0
    4.5385    0.4700    1.5500 H   0  0  0  0  0  0  0  0  0  0  0  0
    5.4448    1.0011    0.0817 H   0  0  0  0  0  0  0  0  0  0  0  0
    5.3008   -0.7491    0.4718 H   0  0  0  0  0  0  0  0  0  0  0  0
    3.3714    0.9803   -1.0122 H   0  0  0  0  0  0  0  0  0  0  0  0
    3.5742   -0.8544   -0.9757 H   0  0  0  0  0  0  0  0  0  0  0  0
    2.3807   -0.9126    1.1963 H   0  0  0  0  0  0  0  0  0  0  0  0
    2.1718    0.8804    1.1213 H   0  0  0  0  0  0  0  0  0  0  0  0
    1.0007    0.7158   -0.8735 H   0  0  0  0  0  0  0  0  0  0  0  0
    0.1322   -1.4964    0.8921 H   0  0  0  0  0  0  0  0  0  0  0  0
   -0.2755    0.2177    1.1515 H   0  0  0  0  0  0  0  0  0  0  0  0
   -1.0196   -1.5508   -1.2901 H   0  0  0  0  0  0  0  0  0  0  0  0
   -1.8777    0.2330   -2.2826 H   0  0  0  0  0  0  0  0  0  0  0  0
   -3.4242    1.3786   -1.2662 H   0  0  0  0  0  0  0  0  0  0  0  0
   -2.1745    2.2714   -0.3334 H   0  0  0  0  0  0  0  0  0  0  0  0
   -2.2388    0.7719    1.4566 H   0  0  0  0  0  0  0  0  0  0  0  0
   -4.3157    1.2356    1.6201 H   0  0  0  0  0  0  0  0  0  0  0  0
   -2.3809   -1.5982    1.0374 H   0  0  0  0  0  0  0  0  0  0  0  0
   -3.5634   -2.3930   -0.5703 H   0  0  0  0  0  0  0  0  0  0  0  0
  1  2  1  0
  2  3  1  0
  3  4  1  0
  4  5  1  0
  5  6  1  0
  6  7  1  0
  7  8  1  0
  8  9  1  0
  9 10  1  0
  9 11  1  0
 11 12  1  0
 11  6  1  0
  1 13  1  0
  1 14  1  0
  1 15  1  0
  2 16  1  0
  2 17  1  0
  3 18  1  0
  3 19  1  0
  4 20  1  0
  5 21  1  0
  5 22  1  0
  6 23  1  6
  7 24  1  0
  8 25  1  0
  8 26  1  0
  9 27  1  1
 10 28  1  0
 11 29  1  1
 12 30  1  0
M  END
$$$$

     RDKit          3D

 30 30  0  0  0  0  0  0  0  0999 V2000
    3.7622    0.9502   -0.7476 C   0  0  0  0  0  0  0  0  0  0  0  0
    3.7068   -0.4864   -0.3068 C   0  0  0  0  0  0  0  0  0  0  0  0
    2.4020   -0.7379    0.3821 C   0  0  0  0  0  0  0  0  0  0  0  0
    1.2624   -0.4863   -0.4766 N   0  0  0  0  0  0  0  0  0  0  0  0
    0.0337   -0.7489    0.2511 C   0  0  0  0  0  0  0  0  0  0  0  0
   -1.1879   -0.4991   -0.6071 C   0  0  2  0  0  0  0  0  0  0  0  0
   -1.2290    0.8637   -1.0520 N   0  0  0  0  0  0  0  0  0  0  0  0
   -2.4878    1.4320   -0.5885 C   0  0  0  0  0  0  0  0  0  0  0  0
   -2.6681    0.6904    0.7393 C   0  0  1  0  0  0  0  0  0  0  0  0
   -3.9623    0.8441    1.2205 O   0  0  0  0  0  0  0  0  0  0  0  0
   -2.4071   -0.7265    0.2655 C   0  0  1  0  0  0  0  0  0  0  0  0
   -3.5100   -1.1099   -0.4926 O   0  0  0  0  0  0  0  0  0  0  0  0
    4.8316    1.2835   -0.6937 H   0  0  0  0  0  0  0  0  0  0  0  0
    3.3752    1.0518   -1.7757 H   0  0  0  0  0  0  0  0  0  0  0  0
    3.1948    1.6050   -0.0650 H   0  0  0  0  0  0  0  0  0  0  0  0
    3.8456   -1.1688   -1.1882 H   0  0  0  0  0  0  0  0  0  0  0  0
    4.5157   -0.6654    0.4291 H   0  0  0  0  0  0  0  0  0  0  0  0
    2.3630   -1.7864    0.7452 H   0  0  0  0  0  0  0  0  0  0  0  0
    2.3317   -0.0297    1.2338 H   0  0  0  0  0  0  0  0  0  0  0  0
    1.3236   -1.1162   -1.2907 H   0  0  0  0  0  0  0  0  0  0  0  0
    0.0400   -1.8087    0.5784 H   0  0  0  0  0  0  0  0  0  0  0  0
   -0.0269   -0.0769    1.1442 H   0  0  0  0  0  0  0  0  0  0  0  0
   -1.1790   -1.2141   -1.4707 H   0  0  0  0  0  0  0  0  0  0  0  0
   -0.4712    1.4372   -0.5727 H   0  0  0  0  0  0  0  0  0  0  0  0
   -3.2787    1.0890   -1.2981 H   0  0  0  0  0  0  0  0  0  0  0  0
   -2.4589    2.5138   -0.4646 H   0  0  0  0  0  0  0  0  0  0  0  0
   -1.8991    1.0200    1.4455 H   0  0  0  0  0  0  0  0  0  0  0  0
   -4.5410    1.3670    0.5961 H   0  0  0  0  0  0  0  0  0  0  0  0
   -2.2035   -1.4249    1.0968 H   0  0  0  0  0  0  0  0  0  0  0  0
   -3.4775   -2.0618   -0.7535 H   0  0  0  0  0  0  0  0  0  0  0  0
  1  2  1  0
  2  3  1  0
  3  4  1  0
  4  5  1  0
  5  6  1  0
  6  7  1  0
  7  8  1  0
  8  9  1  0
  9 10  1  0
  9 11  1  0
 11 12  1  0
 11  6  1  0
  1 13  1  0
  1 14  1  0
  1 15  1  0
  2 16  1  0
  2 17  1  0
  3 18  1  0
  3 19  1  0
  4 20  1  0
  5 21  1  0
  5 22  1  0
  6 23  1  6
  7 24  1  0
  8 25  1  0
  8 26  1  0
  9 27  1  1
 10 28  1  0
 11 29  1  1
 12 30  1  0
M  END
$$$$

     RDKit          3D

 30 30  0  0  0  0  0  0  0  0999 V2000
    4.4079   -0.5544   -0.3572 C   0  0  0  0  0  0  0  0  0  0  0  0
    3.1450    0.2730   -0.0999 C   0  0  0  0  0  0  0  0  0  0  0  0
    2.1576   -0.5416    0.6510 C   0  0  0  0  0  0  0  0  0  0  0  0
    0.9315    0.0720    0.9916 N   0  0  0  0  0  0  0  0  0  0  0  0
    0.0487    0.3985   -0.0789 C   0  0  0  0  0  0  0  0  0  0  0  0
   -1.2853    0.8423    0.4998 C   0  0  2  0  0  0  0  0  0  0  0  0
   -1.8742   -0.2255    1.2964 N   0  0  0  0  0  0  0  0  0  0  0  0
   -2.1248   -1.2576    0.2755 C   0  0  0  0  0  0  0  0  0  0  0  0
   -2.5204   -0.5108   -0.9634 C   0  0  1  0  0  0  0  0  0  0  0  0
   -3.8179   -0.7544   -1.3516 O   0  0  0  0  0  0  0  0  0  0  0  0
   -2.3241    0.9506   -0.6102 C   0  0  1  0  0  0  0  0  0  0  0  0
   -3.4823    1.5294   -0.1200 O   0  0  0  0  0  0  0  0  0  0  0  0
    4.1429   -1.5789   -0.6979 H   0  0  0  0  0  0  0  0  0  0  0  0
    5.0141   -0.0426   -1.1127 H   0  0  0  0  0  0  0  0  0  0  0  0
    5.0099   -0.5959    0.5868 H   0  0  0  0  0  0  0  0  0  0  0  0
    2.7073    0.5247   -1.1116 H   0  0  0  0  0  0  0  0  0  0  0  0
    3.3642    1.2364    0.3990 H   0  0  0  0  0  0  0  0  0  0  0  0
    2.6708   -0.8021    1.6357 H   0  0  0  0  0  0  0  0  0  0  0  0
    1.9670   -1.5225    0.1358 H   0  0  0  0  0  0  0  0  0  0  0  0
    0.9609    0.7277    1.7754 H   0  0  0  0  0  0  0  0  0  0  0  0
   -0.0410   -0.4115   -0.8023 H   0  0  0  0  0  0  0  0  0  0  0  0
    0.4571    1.3242   -0.6003 H   0  0  0  0  0  0  0  0  0  0  0  0
   -1.2176    1.8022    0.9977 H   0  0  0  0  0  0  0  0  0  0  0  0
   -2.7874    0.1044    1.6467 H   0  0  0  0  0  0  0  0  0  0  0  0
   -1.1792   -1.8197    0.1484 H   0  0  0  0  0  0  0  0  0  0  0  0
   -2.9673   -1.9224    0.5647 H   0  0  0  0  0  0  0  0  0  0  0  0
   -1.7880   -0.7548   -1.7658 H   0  0  0  0  0  0  0  0  0  0  0  0
   -4.4090    0.0128   -1.2418 H   0  0  0  0  0  0  0  0  0  0  0  0
   -1.9001    1.5328   -1.4265 H   0  0  0  0  0  0  0  0  0  0  0  0
   -3.2661    1.9634    0.7355 H   0  0  0  0  0  0  0  0  0  0  0  0
  1  2  1  0
  2  3  1  0
  3  4  1  0
  4  5  1  0
  5  6  1  0
  6  7  1  0
  7  8  1  0
  8  9  1  0
  9 10  1  0
  9 11  1  0
 11 12  1  0
 11  6  1  0
  1 13  1  0
  1 14  1  0
  1 15  1  0
  2 16  1  0
  2 17  1  0
  3 18  1  0
  3 19  1  0
  4 20  1  0
  5 21  1  0
  5 22  1  0
  6 23  1  1
  7 24  1  0
  8 25  1  0
  8 26  1  0
  9 27  1  6
 10 28  1  0
 11 29  1  6
 12 30  1  0
M  END
$$$$
