
     RDKit          3D

 29 29  0  0  0  0  0  0  0  0999 V2000
   -1.8759    0.6973   -1.6002 N   0  0  0  0  0  0  0  0  0  0  0  0
   -1.5930   -0.5247   -0.9486 C   0  0  2  0  0  0  0  0  0  0  0  0
   -2.8204   -1.2920   -0.5302 C   0  0  0  0  0  0  0  0  0  0  0  0
   -3.5393   -0.7035    0.4713 O   0  0  0  0  0  0  0  0  0  0  0  0
   -3.0777    0.5058    0.9068 C   0  0  0  0  0  0  0  0  0  0  0  0
   -1.6265    0.5343    1.2744 C   0  0  0  0  0  0  0  0  0  0  0  0
   -0.7773   -0.2753    0.3120 C   0  0  2  0  0  0  0  0  0  0  0  0
    0.4531    0.3931   -0.0120 N   0  0  0  0  0  0  0  0  0  0  0  0
    1.6890   -0.2636    0.2350 C   0  0  0  0  0  0  0  0  0  0  0  0
    1.7609   -1.4043    0.7245 O   0  0  0  0  0  0  0  0  0  0  0  0
    2.9249    0.4796   -0.1214 C   0  0  0  0  0  0  0  0  0  0  0  0
    4.1410   -0.3893    0.2173 C   0  0  0  0  0  0  0  0  0  0  0  0
    5.3182    0.2810   -0.1059 O   0  0  0  0  0  0  0  0  0  0  0  0
   -2.0035    0.6484   -2.6238 H   0  0  0  0  0  0  0  0  0  0  0  0
   -1.4455    1.5414   -1.2358 H   0  0  0  0  0  0  0  0  0  0  0  0
   -0.9896   -1.2032   -1.5857 H   0  0  0  0  0  0  0  0  0  0  0  0
   -2.4556   -2.2916   -0.1501 H   0  0  0  0  0  0  0  0  0  0  0  0
   -3.4394   -1.5286   -1.4423 H   0  0  0  0  0  0  0  0  0  0  0  0
   -3.3635    1.3251    0.1905 H   0  0  0  0  0  0  0  0  0  0  0  0
   -3.6500    0.7573    1.8478 H   0  0  0  0  0  0  0  0  0  0  0  0
   -1.2674    1.5672    1.3283 H   0  0  0  0  0  0  0  0  0  0  0  0
   -1.5227    0.0567    2.2836 H   0  0  0  0  0  0  0  0  0  0  0  0
   -0.5578   -1.2747    0.7368 H   0  0  0  0  0  0  0  0  0  0  0  0
    0.4212    1.3686   -0.4316 H   0  0  0  0  0  0  0  0  0  0  0  0
    2.9077    0.6617   -1.2245 H   0  0  0  0  0  0  0  0  0  0  0  0
    3.0106    1.4259    0.4235 H   0  0  0  0  0  0  0  0  0  0  0  0
    4.1067   -0.5934    1.3144 H   0  0  0  0  0  0  0  0  0  0  0  0
    4.0940   -1.3537   -0.3260 H   0  0  0  0  0  0  0  0  0  0  0  0
    5.1777    0.8544   -0.8913 H   0  0  0  0  0  0  0  0  0  0  0  0
  1  2  1  0
  2  3  1  0
  3  4  1  0
  4  5  1  0
  5  6  1  0
  6  7  1  0
  7  8  1  0
  8  9  1  0
  9 10  2  0
  9 11  1  0
 11 12  1  0
 12 13  1  0
  7  2  1  0
  1 14  1  0
  1 15  1  0
  2 16  1  6
  3 17  1  0
  3 18  1  0
  5 19  1  0
  5 20  1  0
  6 21  1  0
  6 22  1  0
  7 23  1  1
  8 24  1  0
 11 25  1  0
 11 26  1  0
 12 27  1  0
 12 28  1  0
 13 29  1  0
M  END
$$$$

     RDKit          3D

 29 29  0  0  0  0  0  0  0  0999 V2000
   -1.8547   -1.8879    0.3853 N   0  0  0  0  0  0  0  0  0  0  0  0
   -1.6871   -0.5146    0.6694 C   0  0  2  0  0  0  0  0  0  0  0  0
   -2.9987    0.2013    0.5448 C   0  0  0  0  0  0  0  0  0  0  0  0
   -2.9570    1.2338   -0.3961 O   0  0  0  0  0  0  0  0  0  0  0  0
   -2.6132    0.6124   -1.6194 C   0  0  0  0  0  0  0  0  0  0  0  0
   -1.1196    0.4234   -1.5895 C   0  0  0  0  0  0  0  0  0  0  0  0
   -0.6590    0.1968   -0.1619 C   0  0  2  0  0  0  0  0  0  0  0  0
    0.6302   -0.4064   -0.1513 N   0  0  0  0  0  0  0  0  0  0  0  0
    1.7712    0.2577    0.3734 C   0  0  0  0  0  0  0  0  0  0  0  0
    1.7082    1.4154    0.8584 O   0  0  0  0  0  0  0  0  0  0  0  0
    3.0789   -0.4398    0.3473 C   0  0  0  0  0  0  0  0  0  0  0  0
    4.1591    0.4350    0.9499 C   0  0  0  0  0  0  0  0  0  0  0  0
    3.8076    0.7182    2.2691 O   0  0  0  0  0  0  0  0  0  0  0  0
   -2.7382   -2.1133   -0.1484 H   0  0  0  0  0  0  0  0  0  0  0  0
   -1.8374   -2.4934    1.2542 H   0  0  0  0  0  0  0  0  0  0  0  0
   -1.3622   -0.4106    1.7379 H   0  0  0  0  0  0  0  0  0  0  0  0
   -3.3666    0.6365    1.4896 H   0  0  0  0  0  0  0  0  0  0  0  0
   -3.8126   -0.4910    0.1863 H   0  0  0  0  0  0  0  0  0  0  0  0
   -2.9374    1.2734   -2.4611 H   0  0  0  0  0  0  0  0  0  0  0  0
   -3.1677   -0.3325   -1.7232 H   0  0  0  0  0  0  0  0  0  0  0  0
   -0.7499   -0.3584   -2.2541 H   0  0  0  0  0  0  0  0  0  0  0  0
   -0.6782    1.3956   -1.9598 H   0  0  0  0  0  0  0  0  0  0  0  0
   -0.5702    1.2086    0.2919 H   0  0  0  0  0  0  0  0  0  0  0  0
    0.7561   -1.3831   -0.5452 H   0  0  0  0  0  0  0  0  0  0  0  0
    3.0568   -1.4151    0.8820 H   0  0  0  0  0  0  0  0  0  0  0  0
    3.3756   -0.7026   -0.7090 H   0  0  0  0  0  0  0  0  0  0  0  0
    5.1228   -0.0840    0.9315 H   0  0  0  0  0  0  0  0  0  0  0  0
    4.1666    1.3929    0.3618 H   0  0  0  0  0  0  0  0  0  0  0  0
    3.4767    1.6315    2.3898 H   0  0  0  0  0  0  0  0  0  0  0  0
  1  2  1  0
  2  3  1  0
  3  4  1  0
  4  5  1  0
  5  6  1  0
  6  7  1  0
  7  8  1  0
  8  9  1  0
  9 10  2  0
  9 11  1  0
 11 12  1  0
 12 13  1  0
  7  2  1  0
  1 14  1  0
  1 15  1  0
  2 16  1  1
  3 17  1  0
  3 18  1  0
  5 19  1  0
  5 20  1  0
  6 21  1  0
  6 22  1  0
  7 23  1  1
  8 24  1  0
 11 25  1  0
 11 26  1  0
 12 27  1  0
 12 28  1  0
 13 29  1  0
M  END
$$$$

     RDKit          3D

 29 29  0  0  0  0  0  0  0  0999 V2000
   -1.4185   -2.0690   -0.9590 N   0  0  0  0  0  0  0  0  0  0  0  0
   -1.8981   -1.0566   -0.0664 C   0  0  2  0  0  0  0  0  0  0  0  0
   -2.6823    0.0285   -0.7951 C   0  0  0  0  0  0  0  0  0  0  0  0
   -3.2867    0.8063    0.1719 O   0  0  0  0  0  0  0  0  0  0  0  0
   -2.3998    1.4639    0.9860 C   0  0  0  0  0  0  0  0  0  0  0  0
   -1.4582    0.5321    1.7245 C   0  0  0  0  0  0  0  0  0  0  0  0
   -0.8028   -0.4623    0.7871 C   0  0  2  0  0  0  0  0  0  0  0  0
    0.1805    0.2453    0.0216 N   0  0  0  0  0  0  0  0  0  0  0  0
    1.5635   -0.0731    0.0571 C   0  0  0  0  0  0  0  0  0  0  0  0
    1.8846   -1.0423    0.8234 O   0  0  0  0  0  0  0  0  0  0  0  0
    2.5849    0.6636   -0.7396 C   0  0  0  0  0  0  0  0  0  0  0  0
    3.9398    0.0356   -0.4375 C   0  0  0  0  0  0  0  0  0  0  0  0
    4.2610    0.1170    0.8946 O   0  0  0  0  0  0  0  0  0  0  0  0
   -1.7845   -2.0060   -1.9238 H   0  0  0  0  0  0  0  0  0  0  0  0
   -1.4287   -3.0308   -0.5567 H   0  0  0  0  0  0  0  0  0  0  0  0
   -2.6205   -1.5336    0.6366 H   0  0  0  0  0  0  0  0  0  0  0  0
   -3.4884   -0.5065   -1.3513 H   0  0  0  0  0  0  0  0  0  0  0  0
   -2.0461    0.5988   -1.4852 H   0  0  0  0  0  0  0  0  0  0  0  0
   -2.9868    2.0123    1.7537 H   0  0  0  0  0  0  0  0  0  0  0  0
   -1.8036    2.1640    0.3685 H   0  0  0  0  0  0  0  0  0  0  0  0
   -2.0231   -0.0167    2.5026 H   0  0  0  0  0  0  0  0  0  0  0  0
   -0.6491    1.1599    2.1531 H   0  0  0  0  0  0  0  0  0  0  0  0
   -0.3932   -1.2719    1.4036 H   0  0  0  0  0  0  0  0  0  0  0  0
   -0.1396    1.0280   -0.5870 H   0  0  0  0  0  0  0  0  0  0  0  0
    2.6652    1.7290   -0.3875 H   0  0  0  0  0  0  0  0  0  0  0  0
    2.3732    0.6935   -1.8067 H   0  0  0  0  0  0  0  0  0  0  0  0
    4.6833    0.5703   -1.0480 H   0  0  0  0  0  0  0  0  0  0  0  0
    3.9502   -1.0423   -0.7282 H   0  0  0  0  0  0  0  0  0  0  0  0
    5.2238    0.2631    1.0693 H   0  0  0  0  0  0  0  0  0  0  0  0
  1  2  1  0
  2  3  1  0
  3  4  1  0
  4  5  1  0
  5  6  1  0
  6  7  1  0
  7  8  1  0
  8  9  1  0
  9 10  2  0
  9 11  1  0
 11 12  1  0
 12 13  1  0
  7  2  1  0
  1 14  1  0
  1 15  1  0
  2 16  1  1
  3 17  1  0
  3 18  1  0
  5 19  1  0
  5 20  1  0
  6 21  1  0
  6 22  1  0
  7 23  1  1
  8 24  1  0
 11 25  1  0
 11 26  1  0
 12 27  1  0
 12 28  1  0
 13 29  1  0
M  END
$$$$

     RDKit          3D

 29 29  0  0  0  0  0  0  0  0999 V2000
   -1.6131   -1.7315    0.6895 N   0  0  0  0  0  0  0  0  0  0  0  0
   -1.9529   -0.4215    0.2059 C   0  0  2  0  0  0  0  0  0  0  0  0
   -2.3437   -0.4637   -1.2402 C   0  0  0  0  0  0  0  0  0  0  0  0
   -2.4516    0.7373   -1.8543 O   0  0  0  0  0  0  0  0  0  0  0  0
   -2.3613    1.8554   -1.1007 C   0  0  0  0  0  0  0  0  0  0  0  0
   -1.3004    1.8812   -0.0500 C   0  0  0  0  0  0  0  0  0  0  0  0
   -0.7570    0.5319    0.2958 C   0  0  2  0  0  0  0  0  0  0  0  0
    0.3516    0.0977   -0.4756 N   0  0  0  0  0  0  0  0  0  0  0  0
    1.6082   -0.2873    0.0399 C   0  0  0  0  0  0  0  0  0  0  0  0
    1.7148   -0.2261    1.2994 O   0  0  0  0  0  0  0  0  0  0  0  0
    2.7341   -0.7352   -0.8333 C   0  0  0  0  0  0  0  0  0  0  0  0
    3.9085   -1.0619    0.0831 C   0  0  0  0  0  0  0  0  0  0  0  0
    4.3026    0.0430    0.8219 O   0  0  0  0  0  0  0  0  0  0  0  0
   -2.0977   -2.4286    0.0889 H   0  0  0  0  0  0  0  0  0  0  0  0
   -2.0151   -1.8326    1.6490 H   0  0  0  0  0  0  0  0  0  0  0  0
   -2.7648    0.0535    0.7955 H   0  0  0  0  0  0  0  0  0  0  0  0
   -3.2512   -1.1155   -1.3145 H   0  0  0  0  0  0  0  0  0  0  0  0
   -1.5388   -1.0530   -1.7700 H   0  0  0  0  0  0  0  0  0  0  0  0
   -2.1515    2.7243   -1.7929 H   0  0  0  0  0  0  0  0  0  0  0  0
   -3.3890    2.0880   -0.6962 H   0  0  0  0  0  0  0  0  0  0  0  0
   -1.7829    2.2743    0.8742 H   0  0  0  0  0  0  0  0  0  0  0  0
   -0.4931    2.6370   -0.2634 H   0  0  0  0  0  0  0  0  0  0  0  0
   -0.4614    0.5145    1.3668 H   0  0  0  0  0  0  0  0  0  0  0  0
    0.2362    0.0559   -1.5224 H   0  0  0  0  0  0  0  0  0  0  0  0
    2.4514   -1.7088   -1.3204 H   0  0  0  0  0  0  0  0  0  0  0  0
    2.9973   -0.0053   -1.6005 H   0  0  0  0  0  0  0  0  0  0  0  0
    4.7475   -1.4968   -0.4830 H   0  0  0  0  0  0  0  0  0  0  0  0
    3.5653   -1.8280    0.8107 H   0  0  0  0  0  0  0  0  0  0  0  0
    4.1079    0.9020    0.4000 H   0  0  0  0  0  0  0  0  0  0  0  0
  1  2  1  0
  2  3  1  0
  3  4  1  0
  4  5  1  0
  5  6  1  0
  6  7  1  0
  7  8  1  0
  8  9  1  0
  9 10  2  0
  9 11  1  0
 11 12  1  0
 12 13  1  0
  7  2  1  0
  1 14  1  0
  1 15  1  0
  2 16  1  1
  3 17  1  0
  3 18  1  0
  5 19  1  0
  5 20  1  0
  6 21  1  0
  6 22  1  0
  7 23  1  1
  8 24  1  0
 11 25  1  0
 11 26  1  0
 12 27  1  0
 12 28  1  0
 13 29  1  0
M  END
$$$$

     RDKit          3D

 29 29  0  0  0  0  0  0  0  0999 V2000
   -1.6444    1.7919    1.1009 N   0  0  0  0  0  0  0  0  0  0  0  0
   -1.5180    1.0843   -0.1517 C   0  0  2  0  0  0  0  0  0  0  0  0
   -2.9304    0.7685   -0.6322 C   0  0  0  0  0  0  0  0  0  0  0  0
   -3.5760    0.1185    0.4082 O   0  0  0  0  0  0  0  0  0  0  0  0
   -3.0013   -1.1334    0.5966 C   0  0  0  0  0  0  0  0  0  0  0  0
   -1.5540   -1.0094    1.0809 C   0  0  0  0  0  0  0  0  0  0  0  0
   -0.8127   -0.2494    0.0184 C   0  0  2  0  0  0  0  0  0  0  0  0
    0.5546    0.0379    0.3526 N   0  0  0  0  0  0  0  0  0  0  0  0
    1.6702   -0.3144   -0.4228 C   0  0  0  0  0  0  0  0  0  0  0  0
    1.5051   -0.9213   -1.4853 O   0  0  0  0  0  0  0  0  0  0  0  0
    3.0481    0.0260    0.0050 C   0  0  0  0  0  0  0  0  0  0  0  0
    4.0710   -0.4539   -0.9861 C   0  0  0  0  0  0  0  0  0  0  0  0
    3.8877    0.1092   -2.2468 O   0  0  0  0  0  0  0  0  0  0  0  0
   -2.4283    1.4078    1.6830 H   0  0  0  0  0  0  0  0  0  0  0  0
   -0.7774    1.8694    1.6404 H   0  0  0  0  0  0  0  0  0  0  0  0
   -0.9726    1.6982   -0.8881 H   0  0  0  0  0  0  0  0  0  0  0  0
   -3.4280    1.7353   -0.8442 H   0  0  0  0  0  0  0  0  0  0  0  0
   -2.8633    0.1171   -1.5228 H   0  0  0  0  0  0  0  0  0  0  0  0
   -3.5903   -1.7776    1.2716 H   0  0  0  0  0  0  0  0  0  0  0  0
   -2.9161   -1.5845   -0.4347 H   0  0  0  0  0  0  0  0  0  0  0  0
   -1.2114   -2.0601    1.1913 H   0  0  0  0  0  0  0  0  0  0  0  0
   -1.5721   -0.4467    2.0179 H   0  0  0  0  0  0  0  0  0  0  0  0
   -0.9281   -0.7907   -0.9329 H   0  0  0  0  0  0  0  0  0  0  0  0
    0.7277    0.5507    1.2459 H   0  0  0  0  0  0  0  0  0  0  0  0
    3.2706   -0.4828    0.9713 H   0  0  0  0  0  0  0  0  0  0  0  0
    3.1749    1.1052    0.1732 H   0  0  0  0  0  0  0  0  0  0  0  0
    4.0270   -1.5748   -1.0608 H   0  0  0  0  0  0  0  0  0  0  0  0
    5.0687   -0.2210   -0.5686 H   0  0  0  0  0  0  0  0  0  0  0  0
    4.7189    0.5999   -2.4669 H   0  0  0  0  0  0  0  0  0  0  0  0
  1  2  1  0
  2  3  1  0
  3  4  1  0
  4  5  1  0
  5  6  1  0
  6  7  1  0
  7  8  1  0
  8  9  1  0
  9 10  2  0
  9 11  1  0
 11 12  1  0
 12 13  1  0
  7  2  1  0
  1 14  1  0
  1 15  1  0
  2 16  1  6
  3 17  1  0
  3 18  1  0
  5 19  1  0
  5 20  1  0
  6 21  1  0
  6 22  1  0
  7 23  1  6
  8 24  1  0
 11 25  1  0
 11 26  1  0
 12 27  1  0
 12 28  1  0
 13 29  1  0
M  END
$$$$

     RDKit          3D

 29 29  0  0  0  0  0  0  0  0999 V2000
   -1.0972   -2.0359    0.6831 N   0  0  0  0  0  0  0  0  0  0  0  0
   -1.5562   -0.7599    1.2415 C   0  0  2  0  0  0  0  0  0  0  0  0
   -3.0468   -0.6652    1.2782 C   0  0  0  0  0  0  0  0  0  0  0  0
   -3.6686   -0.3305    0.1376 O   0  0  0  0  0  0  0  0  0  0  0  0
   -2.9515    0.2078   -0.8728 C   0  0  0  0  0  0  0  0  0  0  0  0
   -1.7754    1.0393   -0.4757 C   0  0  0  0  0  0  0  0  0  0  0  0
   -0.8933    0.3830    0.5469 C   0  0  2  0  0  0  0  0  0  0  0  0
    0.3791   -0.0066   -0.0488 N   0  0  0  0  0  0  0  0  0  0  0  0
    1.6158    0.5730    0.3278 C   0  0  0  0  0  0  0  0  0  0  0  0
    1.6160    1.4637    1.2159 O   0  0  0  0  0  0  0  0  0  0  0  0
    2.8938    0.1387   -0.3133 C   0  0  0  0  0  0  0  0  0  0  0  0
    4.0712    0.8914    0.2456 C   0  0  0  0  0  0  0  0  0  0  0  0
    5.2148    0.4385   -0.3922 O   0  0  0  0  0  0  0  0  0  0  0  0
   -1.1071   -2.0346   -0.3545 H   0  0  0  0  0  0  0  0  0  0  0  0
   -1.5638   -2.8393    1.1122 H   0  0  0  0  0  0  0  0  0  0  0  0
   -1.1993   -0.7653    2.2979 H   0  0  0  0  0  0  0  0  0  0  0  0
   -3.3216    0.0440    2.0865 H   0  0  0  0  0  0  0  0  0  0  0  0
   -3.4289   -1.6655    1.6247 H   0  0  0  0  0  0  0  0  0  0  0  0
   -2.6512   -0.5966   -1.5996 H   0  0  0  0  0  0  0  0  0  0  0  0
   -3.6360    0.8794   -1.4679 H   0  0  0  0  0  0  0  0  0  0  0  0
   -2.1560    2.0333   -0.1497 H   0  0  0  0  0  0  0  0  0  0  0  0
   -1.1693    1.2272   -1.3934 H   0  0  0  0  0  0  0  0  0  0  0  0
   -0.6458    1.1837    1.3050 H   0  0  0  0  0  0  0  0  0  0  0  0
    0.4127   -0.7428   -0.7883 H   0  0  0  0  0  0  0  0  0  0  0  0
    2.8434    0.2735   -1.4024 H   0  0  0  0  0  0  0  0  0  0  0  0
    3.0496   -0.9470   -0.0974 H   0  0  0  0  0  0  0  0  0  0  0  0
    4.1188    0.7308    1.3507 H   0  0  0  0  0  0  0  0  0  0  0  0
    3.9163    1.9651    0.0045 H   0  0  0  0  0  0  0  0  0  0  0  0
    5.7365   -0.0830    0.2919 H   0  0  0  0  0  0  0  0  0  0  0  0
  1  2  1  0
  2  3  1  0
  3  4  1  0
  4  5  1  0
  5  6  1  0
  6  7  1  0
  7  8  1  0
  8  9  1  0
  9 10  2  0
  9 11  1  0
 11 12  1  0
 12 13  1  0
  7  2  1  0
  1 14  1  0
  1 15  1  0
  2 16  1  1
  3 17  1  0
  3 18  1  0
  5 19  1  0
  5 20  1  0
  6 21  1  0
  6 22  1  0
  7 23  1  1
  8 24  1  0
 11 25  1  0
 11 26  1  0
 12 27  1  0
 12 28  1  0
 13 29  1  0
M  END
$$$$

     RDKit          3D

 29 29  0  0  0  0  0  0  0  0999 V2000
   -2.1247    0.7387    1.3880 N   0  0  0  0  0  0  0  0  0  0  0  0
   -1.6309    0.9309    0.0507 C   0  0  2  0  0  0  0  0  0  0  0  0
   -2.8399    0.8482   -0.8913 C   0  0  0  0  0  0  0  0  0  0  0  0
   -3.5228   -0.3431   -0.6779 O   0  0  0  0  0  0  0  0  0  0  0  0
   -2.7411   -1.4546   -0.9426 C   0  0  0  0  0  0  0  0  0  0  0  0
   -1.4881   -1.4943   -0.0721 C   0  0  0  0  0  0  0  0  0  0  0  0
   -0.7176   -0.2244   -0.3786 C   0  0  2  0  0  0  0  0  0  0  0  0
    0.5502   -0.1806    0.3017 N   0  0  0  0  0  0  0  0  0  0  0  0
    1.7912   -0.0584   -0.3474 C   0  0  0  0  0  0  0  0  0  0  0  0
    1.8065    0.0180   -1.5955 O   0  0  0  0  0  0  0  0  0  0  0  0
    3.0941   -0.0167    0.4044 C   0  0  0  0  0  0  0  0  0  0  0  0
    4.2569    0.1179   -0.5352 C   0  0  0  0  0  0  0  0  0  0  0  0
    4.1956    1.2733   -1.3017 O   0  0  0  0  0  0  0  0  0  0  0  0
   -3.0737    1.1677    1.4554 H   0  0  0  0  0  0  0  0  0  0  0  0
   -1.4593    1.1820    2.0821 H   0  0  0  0  0  0  0  0  0  0  0  0
   -1.1616    1.9058   -0.1190 H   0  0  0  0  0  0  0  0  0  0  0  0
   -2.4074    0.8881   -1.9195 H   0  0  0  0  0  0  0  0  0  0  0  0
   -3.5237    1.6846   -0.7598 H   0  0  0  0  0  0  0  0  0  0  0  0
   -3.3495   -2.3485   -0.6945 H   0  0  0  0  0  0  0  0  0  0  0  0
   -2.3978   -1.5239   -1.9853 H   0  0  0  0  0  0  0  0  0  0  0  0
   -1.7731   -1.5140    0.9964 H   0  0  0  0  0  0  0  0  0  0  0  0
   -0.8834   -2.3511   -0.3897 H   0  0  0  0  0  0  0  0  0  0  0  0
   -0.6366   -0.1532   -1.4689 H   0  0  0  0  0  0  0  0  0  0  0  0
    0.5348   -0.2445    1.3430 H   0  0  0  0  0  0  0  0  0  0  0  0
    3.1936   -1.0220    0.8937 H   0  0  0  0  0  0  0  0  0  0  0  0
    3.1144    0.7647    1.1638 H   0  0  0  0  0  0  0  0  0  0  0  0
    4.3245   -0.7688   -1.2102 H   0  0  0  0  0  0  0  0  0  0  0  0
    5.1803    0.1883    0.0748 H   0  0  0  0  0  0  0  0  0  0  0  0
    3.6889    1.9900   -0.8534 H   0  0  0  0  0  0  0  0  0  0  0  0
  1  2  1  0
  2  3  1  0
  3  4  1  0
  4  5  1  0
  5  6  1  0
  6  7  1  0
  7  8  1  0
  8  9  1  0
  9 10  2  0
  9 11  1  0
 11 12  1  0
 12 13  1  0
  7  2  1  0
  1 14  1  0
  1 15  1  0
  2 16  1  1
  3 17  1  0
  3 18  1  0
  5 19  1  0
  5 20  1  0
  6 21  1  0
  6 22  1  0
  7 23  1  6
  8 24  1  0
 11 25  1  0
 11 26  1  0
 12 27  1  0
 12 28  1  0
 13 29  1  0
M  END
$$$$

     RDKit          3D

 29 29  0  0  0  0  0  0  0  0999 V2000
   -1.5420    2.1052    0.0201 N   0  0  0  0  0  0  0  0  0  0  0  0
   -1.9398    0.7294   -0.0033 C   0  0  2  0  0  0  0  0  0  0  0  0
   -2.2954    0.2519    1.3802 C   0  0  0  0  0  0  0  0  0  0  0  0
   -2.5549   -1.0809    1.4617 O   0  0  0  0  0  0  0  0  0  0  0  0
   -2.6651   -1.7474    0.2726 C   0  0  0  0  0  0  0  0  0  0  0  0
   -1.4971   -1.5754   -0.6488 C   0  0  0  0  0  0  0  0  0  0  0  0
   -0.9233   -0.1799   -0.6302 C   0  0  2  0  0  0  0  0  0  0  0  0
    0.3197   -0.2275    0.0934 N   0  0  0  0  0  0  0  0  0  0  0  0
    1.5295    0.1800   -0.5039 C   0  0  0  0  0  0  0  0  0  0  0  0
    1.5275    0.5939   -1.6916 O   0  0  0  0  0  0  0  0  0  0  0  0
    2.8197    0.1340    0.2373 C   0  0  0  0  0  0  0  0  0  0  0  0
    3.9706    0.6124   -0.5899 C   0  0  0  0  0  0  0  0  0  0  0  0
    5.1205    0.5279    0.1957 O   0  0  0  0  0  0  0  0  0  0  0  0
   -1.3637    2.4142   -0.9791 H   0  0  0  0  0  0  0  0  0  0  0  0
   -2.3811    2.6660    0.3162 H   0  0  0  0  0  0  0  0  0  0  0  0
   -2.8645    0.6596   -0.6166 H   0  0  0  0  0  0  0  0  0  0  0  0
   -1.5150    0.5036    2.1372 H   0  0  0  0  0  0  0  0  0  0  0  0
   -3.2256    0.8169    1.6771 H   0  0  0  0  0  0  0  0  0  0  0  0
   -2.7496   -2.8345    0.4967 H   0  0  0  0  0  0  0  0  0  0  0  0
   -3.5999   -1.4754   -0.2664 H   0  0  0  0  0  0  0  0  0  0  0  0
   -0.7322   -2.3530   -0.4144 H   0  0  0  0  0  0  0  0  0  0  0  0
   -1.8447   -1.7725   -1.6839 H   0  0  0  0  0  0  0  0  0  0  0  0
   -0.7123    0.2091   -1.6457 H   0  0  0  0  0  0  0  0  0  0  0  0
    0.3924   -0.5617    1.0863 H   0  0  0  0  0  0  0  0  0  0  0  0
    3.0292   -0.9138    0.5307 H   0  0  0  0  0  0  0  0  0  0  0  0
    2.7457    0.7085    1.1834 H   0  0  0  0  0  0  0  0  0  0  0  0
    3.8303    1.6516   -0.9575 H   0  0  0  0  0  0  0  0  0  0  0  0
    4.1378   -0.0461   -1.4612 H   0  0  0  0  0  0  0  0  0  0  0  0
    4.9832    0.0039    1.0041 H   0  0  0  0  0  0  0  0  0  0  0  0
  1  2  1  0
  2  3  1  0
  3  4  1  0
  4  5  1  0
  5  6  1  0
  6  7  1  0
  7  8  1  0
  8  9  1  0
  9 10  2  0
  9 11  1  0
 11 12  1  0
 12 13  1  0
  7  2  1  0
  1 14  1  0
  1 15  1  0
  2 16  1  6
  3 17  1  0
  3 18  1  0
  5 19  1  0
  5 20  1  0
  6 21  1  0
  6 22  1  0
  7 23  1  6
  8 24  1  0
 11 25  1  0
 11 26  1  0
 12 27  1  0
 12 28  1  0
 13 29  1  0
M  END
$$$$
