
     RDKit          3D

 22 21  0  0  0  0  0  0  0  0999 V2000
    2.6823    0.7205   -0.5632 C   0  0  0  0  0  0  0  0  0  0  0  0
    2.1881   -0.2288    0.3881 N   0  0  0  0  0  0  0  0  0  0  0  0
    0.8095   -0.0930    0.7357 C   0  0  0  0  0  0  0  0  0  0  0  0
   -0.0697   -0.4448   -0.4355 C   0  0  2  0  0  0  0  0  0  0  0  0
    0.1854    0.3897   -1.5208 O   0  0  0  0  0  0  0  0  0  0  0  0
   -1.5270   -0.5183   -0.0878 C   0  0  2  0  0  0  0  0  0  0  0  0
   -2.1433    0.8166    0.1978 C   0  0  0  0  0  0  0  0  0  0  0  0
   -1.6742   -1.4004    1.0420 N   0  0  0  0  0  0  0  0  0  0  0  0
    2.5134    0.2780   -1.5872 H   0  0  0  0  0  0  0  0  0  0  0  0
    2.2236    1.7208   -0.4949 H   0  0  0  0  0  0  0  0  0  0  0  0
    3.7983    0.8017   -0.4340 H   0  0  0  0  0  0  0  0  0  0  0  0
    2.8296   -0.4127    1.1716 H   0  0  0  0  0  0  0  0  0  0  0  0
    0.5421    0.9039    1.1295 H   0  0  0  0  0  0  0  0  0  0  0  0
    0.6034   -0.8555    1.5331 H   0  0  0  0  0  0  0  0  0  0  0  0
    0.2196   -1.4797   -0.7938 H   0  0  0  0  0  0  0  0  0  0  0  0
   -0.5255    1.0649   -1.5819 H   0  0  0  0  0  0  0  0  0  0  0  0
   -2.0540   -0.9710   -0.9576 H   0  0  0  0  0  0  0  0  0  0  0  0
   -2.7094    0.7891    1.1502 H   0  0  0  0  0  0  0  0  0  0  0  0
   -2.8750    1.1212   -0.6030 H   0  0  0  0  0  0  0  0  0  0  0  0
   -1.3693    1.6218    0.1843 H   0  0  0  0  0  0  0  0  0  0  0  0
   -1.0047   -2.1891    1.0547 H   0  0  0  0  0  0  0  0  0  0  0  0
   -2.6433   -1.6351    1.2865 H   0  0  0  0  0  0  0  0  0  0  0  0
  1  2  1  0
  2  3  1  0
  3  4  1  0
  4  5  1  0
  4  6  1  0
  6  7  1  0
  6  8  1  0
  1  9  1  0
  1 10  1  0
  1 11  1  0
  2 12  1  0
  3 13  1  0
  3 14  1  0
  4 15  1  6
  5 16  1  0
  6 17  1  6
  7 18  1  0
  7 19  1  0
  7 20  1  0
  8 21  1  0
  8 22  1  0
M  END
$$$$

     RDKit          3D

 22 21  0  0  0  0  0  0  0  0999 V2000
    3.3678    0.2562   -0.2606 C   0  0  0  0  0  0  0  0  0  0  0  0
    2.1328    0.1684    0.5183 N   0  0  0  0  0  0  0  0  0  0  0  0
    0.9709   -0.0454   -0.3462 C   0  0  0  0  0  0  0  0  0  0  0  0
   -0.2395    0.1623    0.4892 C   0  0  2  0  0  0  0  0  0  0  0  0
   -0.3002   -0.7325    1.5256 O   0  0  0  0  0  0  0  0  0  0  0  0
   -1.5410    0.2391   -0.2364 C   0  0  2  0  0  0  0  0  0  0  0  0
   -2.5847    0.7560    0.7351 C   0  0  0  0  0  0  0  0  0  0  0  0
   -1.9605   -1.0425   -0.7274 N   0  0  0  0  0  0  0  0  0  0  0  0
    3.4301   -0.5846   -0.9437 H   0  0  0  0  0  0  0  0  0  0  0  0
    4.2002    0.2488    0.4654 H   0  0  0  0  0  0  0  0  0  0  0  0
    3.3274    1.2639   -0.7660 H   0  0  0  0  0  0  0  0  0  0  0  0
    2.2014   -0.6296    1.2167 H   0  0  0  0  0  0  0  0  0  0  0  0
    1.0264    0.5643   -1.2618 H   0  0  0  0  0  0  0  0  0  0  0  0
    1.0140   -1.1101   -0.6999 H   0  0  0  0  0  0  0  0  0  0  0  0
   -0.0883    1.1951    0.9666 H   0  0  0  0  0  0  0  0  0  0  0  0
   -0.0782   -1.6549    1.2612 H   0  0  0  0  0  0  0  0  0  0  0  0
   -1.4807    0.9211   -1.1217 H   0  0  0  0  0  0  0  0  0  0  0  0
   -2.6910    1.8603    0.5482 H   0  0  0  0  0  0  0  0  0  0  0  0
   -3.5579    0.2422    0.6561 H   0  0  0  0  0  0  0  0  0  0  0  0
   -2.2375    0.6609    1.7802 H   0  0  0  0  0  0  0  0  0  0  0  0
   -1.9062   -1.7356    0.0795 H   0  0  0  0  0  0  0  0  0  0  0  0
   -3.0052   -1.0036   -0.9250 H   0  0  0  0  0  0  0  0  0  0  0  0
  1  2  1  0
  2  3  1  0
  3  4  1  0
  4  5  1  0
  4  6  1  0
  6  7  1  0
  6  8  1  0
  1  9  1  0
  1 10  1  0
  1 11  1  0
  2 12  1  0
  3 13  1  0
  3 14  1  0
  4 15  1  1
  5 16  1  0
  6 17  1  6
  7 18  1  0
  7 19  1  0
  7 20  1  0
  8 21  1  0
  8 22  1  0
M  END
$$$$

     RDKit          3D

 22 21  0  0  0  0  0  0  0  0999 V2000
    3.0508    0.0312    0.3482 C   0  0  0  0  0  0  0  0  0  0  0  0
    1.9123   -0.1335   -0.5327 N   0  0  0  0  0  0  0  0  0  0  0  0
    0.6643   -0.1700    0.2104 C   0  0  0  0  0  0  0  0  0  0  0  0
   -0.4289   -0.1595   -0.8512 C   0  0  2  0  0  0  0  0  0  0  0  0
   -0.2576    1.0480   -1.5844 O   0  0  0  0  0  0  0  0  0  0  0  0
   -1.8127   -0.1793   -0.2516 C   0  0  2  0  0  0  0  0  0  0  0  0
   -2.0672    1.0602    0.5892 C   0  0  0  0  0  0  0  0  0  0  0  0
   -2.0280   -1.3851    0.4715 N   0  0  0  0  0  0  0  0  0  0  0  0
    3.1077    1.1383    0.6118 H   0  0  0  0  0  0  0  0  0  0  0  0
    3.0378   -0.5732    1.2524 H   0  0  0  0  0  0  0  0  0  0  0  0
    3.9633   -0.1420   -0.2666 H   0  0  0  0  0  0  0  0  0  0  0  0
    1.9723   -0.9742   -1.1547 H   0  0  0  0  0  0  0  0  0  0  0  0
    0.6162   -1.1909    0.6766 H   0  0  0  0  0  0  0  0  0  0  0  0
    0.5424    0.6216    0.9429 H   0  0  0  0  0  0  0  0  0  0  0  0
   -0.3060   -0.9864   -1.5357 H   0  0  0  0  0  0  0  0  0  0  0  0
    0.3515    1.6667   -1.0799 H   0  0  0  0  0  0  0  0  0  0  0  0
   -2.5240   -0.1312   -1.1316 H   0  0  0  0  0  0  0  0  0  0  0  0
   -1.1476    1.6898    0.6389 H   0  0  0  0  0  0  0  0  0  0  0  0
   -2.8707    1.7083    0.1320 H   0  0  0  0  0  0  0  0  0  0  0  0
   -2.4141    0.7849    1.5917 H   0  0  0  0  0  0  0  0  0  0  0  0
   -1.3055   -1.5541    1.1750 H   0  0  0  0  0  0  0  0  0  0  0  0
   -2.0565   -2.1696   -0.2523 H   0  0  0  0  0  0  0  0  0  0  0  0
  1  2  1  0
  2  3  1  0
  3  4  1  0
  4  5  1  0
  4  6  1  0
  6  7  1  0
  6  8  1  0
  1  9  1  0
  1 10  1  0
  1 11  1  0
  2 12  1  0
  3 13  1  0
  3 14  1  0
  4 15  1  6
  5 16  1  0
  6 17  1  6
  7 18  1  0
  7 19  1  0
  7 20  1  0
  8 21  1  0
  8 22  1  0
M  END
$$$$

     RDKit          3D

 22 21  0  0  0  0  0  0  0  0999 V2000
    3.2915    0.3400   -0.0139 C   0  0  0  0  0  0  0  0  0  0  0  0
    2.0411    0.0506   -0.6824 N   0  0  0  0  0  0  0  0  0  0  0  0
    0.9299    0.1159    0.2501 C   0  0  0  0  0  0  0  0  0  0  0  0
   -0.3480   -0.1943   -0.5014 C   0  0  2  0  0  0  0  0  0  0  0  0
   -0.5952    0.6896   -1.5284 O   0  0  0  0  0  0  0  0  0  0  0  0
   -1.5064   -0.3359    0.4483 C   0  0  2  0  0  0  0  0  0  0  0  0
   -2.6823   -0.9911   -0.2127 C   0  0  0  0  0  0  0  0  0  0  0  0
   -1.8514    0.9246    1.0728 N   0  0  0  0  0  0  0  0  0  0  0  0
    3.9855   -0.5139   -0.1066 H   0  0  0  0  0  0  0  0  0  0  0  0
    3.7954    1.2330   -0.4369 H   0  0  0  0  0  0  0  0  0  0  0  0
    3.1450    0.5259    1.0578 H   0  0  0  0  0  0  0  0  0  0  0  0
    2.0498   -0.9465   -1.0459 H   0  0  0  0  0  0  0  0  0  0  0  0
    1.0162   -0.6533    1.0534 H   0  0  0  0  0  0  0  0  0  0  0  0
    0.8886    1.1035    0.7434 H   0  0  0  0  0  0  0  0  0  0  0  0
   -0.1907   -1.2173   -0.9523 H   0  0  0  0  0  0  0  0  0  0  0  0
   -0.4982    1.6235   -1.2827 H   0  0  0  0  0  0  0  0  0  0  0  0
   -1.1767   -1.0106    1.2711 H   0  0  0  0  0  0  0  0  0  0  0  0
   -2.4219   -2.0844   -0.3201 H   0  0  0  0  0  0  0  0  0  0  0  0
   -2.8802   -0.6108   -1.2316 H   0  0  0  0  0  0  0  0  0  0  0  0
   -3.5774   -0.9260    0.4198 H   0  0  0  0  0  0  0  0  0  0  0  0
   -1.0144    1.3276    1.5167 H   0  0  0  0  0  0  0  0  0  0  0  0
   -2.4000    1.5499    0.4815 H   0  0  0  0  0  0  0  0  0  0  0  0
  1  2  1  0
  2  3  1  0
  3  4  1  0
  4  5  1  0
  4  6  1  0
  6  7  1  0
  6  8  1  0
  1  9  1  0
  1 10  1  0
  1 11  1  0
  2 12  1  0
  3 13  1  0
  3 14  1  0
  4 15  1  6
  5 16  1  0
  6 17  1  1
  7 18  1  0
  7 19  1  0
  7 20  1  0
  8 21  1  0
  8 22  1  0
M  END
$$$$

     RDKit          3D

 22 21  0  0  0  0  0  0  0  0999 V2000
    3.0786    0.5938    0.2384 C   0  0  0  0  0  0  0  0  0  0  0  0
    1.6023    0.6740    0.3788 N   0  0  0  0  0  0  0  0  0  0  0  0
    1.0357   -0.5774   -0.0550 C   0  0  0  0  0  0  0  0  0  0  0  0
   -0.3950   -0.8190    0.2668 C   0  0  2  0  0  0  0  0  0  0  0  0
   -0.6328   -2.1378   -0.2970 O   0  0  0  0  0  0  0  0  0  0  0  0
   -1.4274    0.0193   -0.3870 C   0  0  2  0  0  0  0  0  0  0  0  0
   -1.5913    1.4149    0.1268 C   0  0  0  0  0  0  0  0  0  0  0  0
   -2.7545   -0.6194   -0.0757 N   0  0  0  0  0  0  0  0  0  0  0  0
    3.3453   -0.4404    0.0054 H   0  0  0  0  0  0  0  0  0  0  0  0
    3.4066    1.3211   -0.4972 H   0  0  0  0  0  0  0  0  0  0  0  0
    3.4608    0.9186    1.2403 H   0  0  0  0  0  0  0  0  0  0  0  0
    1.2871    1.3919   -0.3603 H   0  0  0  0  0  0  0  0  0  0  0  0
    1.6390   -1.3927    0.3899 H   0  0  0  0  0  0  0  0  0  0  0  0
    1.1691   -0.6949   -1.1789 H   0  0  0  0  0  0  0  0  0  0  0  0
   -0.5957   -0.9261    1.3593 H   0  0  0  0  0  0  0  0  0  0  0  0
   -0.5516   -2.0091   -1.2645 H   0  0  0  0  0  0  0  0  0  0  0  0
   -1.3402   -0.0272   -1.4699 H   0  0  0  0  0  0  0  0  0  0  0  0
   -1.9496    1.3090    1.1896 H   0  0  0  0  0  0  0  0  0  0  0  0
   -2.4729    1.8359   -0.4587 H   0  0  0  0  0  0  0  0  0  0  0  0
   -0.7836    2.1000   -0.0228 H   0  0  0  0  0  0  0  0  0  0  0  0
   -2.5816   -1.6333   -0.0370 H   0  0  0  0  0  0  0  0  0  0  0  0
   -2.9483   -0.3012    0.9090 H   0  0  0  0  0  0  0  0  0  0  0  0
  1  2  1  0
  2  3  1  0
  3  4  1  0
  4  5  1  0
  4  6  1  0
  6  7  1  0
  6  8  1  0
  1  9  1  0
  1 10  1  0
  1 11  1  0
  2 12  1  0
  3 13  1  0
  3 14  1  0
  4 15  1  1
  5 16  1  0
  6 17  1  6
  7 18  1  0
  7 19  1  0
  7 20  1  0
  8 21  1  0
  8 22  1  0
M  END
$$$$

     RDKit          3D

 22 21  0  0  0  0  0  0  0  0999 V2000
    2.9289    0.7611    0.2729 C   0  0  0  0  0  0  0  0  0  0  0  0
    1.4597    0.8516    0.3386 N   0  0  0  0  0  0  0  0  0  0  0  0
    0.9884   -0.5007    0.4711 C   0  0  0  0  0  0  0  0  0  0  0  0
   -0.4907   -0.6640    0.6442 C   0  0  2  0  0  0  0  0  0  0  0  0
   -0.6794   -2.0788    0.7481 O   0  0  0  0  0  0  0  0  0  0  0  0
   -1.3276   -0.2360   -0.5233 C   0  0  2  0  0  0  0  0  0  0  0  0
   -1.3925    1.2939   -0.6039 C   0  0  0  0  0  0  0  0  0  0  0  0
   -2.7096   -0.6382   -0.2455 N   0  0  0  0  0  0  0  0  0  0  0  0
    3.3269    1.3209    1.1729 H   0  0  0  0  0  0  0  0  0  0  0  0
    3.2677   -0.2873    0.3742 H   0  0  0  0  0  0  0  0  0  0  0  0
    3.2833    1.2098   -0.6587 H   0  0  0  0  0  0  0  0  0  0  0  0
    1.1655    1.2341   -0.6133 H   0  0  0  0  0  0  0  0  0  0  0  0
    1.3883   -1.1598   -0.3503 H   0  0  0  0  0  0  0  0  0  0  0  0
    1.5006   -0.9045    1.3928 H   0  0  0  0  0  0  0  0  0  0  0  0
   -0.8644   -0.2258    1.5740 H   0  0  0  0  0  0  0  0  0  0  0  0
   -0.4730   -2.4314   -0.1523 H   0  0  0  0  0  0  0  0  0  0  0  0
   -1.0407   -0.6916   -1.4736 H   0  0  0  0  0  0  0  0  0  0  0  0
   -0.9496    1.7652    0.2724 H   0  0  0  0  0  0  0  0  0  0  0  0
   -2.4659    1.6507   -0.6144 H   0  0  0  0  0  0  0  0  0  0  0  0
   -0.9527    1.6057   -1.5628 H   0  0  0  0  0  0  0  0  0  0  0  0
   -2.8141   -1.1767    0.6196 H   0  0  0  0  0  0  0  0  0  0  0  0
   -3.1489   -1.0807   -1.0829 H   0  0  0  0  0  0  0  0  0  0  0  0
  1  2  1  0
  2  3  1  0
  3  4  1  0
  4  5  1  0
  4  6  1  0
  6  7  1  0
  6  8  1  0
  1  9  1  0
  1 10  1  0
  1 11  1  0
  2 12  1  0
  3 13  1  0
  3 14  1  0
  4 15  1  1
  5 16  1  0
  6 17  1  6
  7 18  1  0
  7 19  1  0
  7 20  1  0
  8 21  1  0
  8 22  1  0
M  END
$$$$

     RDKit          3D

 22 21  0  0  0  0  0  0  0  0999 V2000
    2.2784    0.1561    0.8733 C   0  0  0  0  0  0  0  0  0  0  0  0
    1.6539   -0.8575    0.0908 N   0  0  0  0  0  0  0  0  0  0  0  0
    1.0721   -0.4271   -1.1383 C   0  0  0  0  0  0  0  0  0  0  0  0
   -0.1423    0.4461   -0.8622 C   0  0  2  0  0  0  0  0  0  0  0  0
    0.2241    1.5489   -0.1304 O   0  0  0  0  0  0  0  0  0  0  0  0
   -1.2300   -0.3144   -0.1712 C   0  0  2  0  0  0  0  0  0  0  0  0
   -2.4301    0.5816   -0.0208 C   0  0  0  0  0  0  0  0  0  0  0  0
   -0.8538   -0.7866    1.1245 N   0  0  0  0  0  0  0  0  0  0  0  0
    3.1189   -0.3162    1.4476 H   0  0  0  0  0  0  0  0  0  0  0  0
    2.6800    0.9763    0.2787 H   0  0  0  0  0  0  0  0  0  0  0  0
    1.5385    0.5657    1.5930 H   0  0  0  0  0  0  0  0  0  0  0  0
    2.0690   -1.7939    0.1112 H   0  0  0  0  0  0  0  0  0  0  0  0
    1.8563    0.1876   -1.6638 H   0  0  0  0  0  0  0  0  0  0  0  0
    0.8275   -1.2419   -1.8187 H   0  0  0  0  0  0  0  0  0  0  0  0
   -0.5259    0.7553   -1.8565 H   0  0  0  0  0  0  0  0  0  0  0  0
   -0.3633    1.7707    0.6138 H   0  0  0  0  0  0  0  0  0  0  0  0
   -1.5117   -1.2271   -0.7684 H   0  0  0  0  0  0  0  0  0  0  0  0
   -2.8227    0.5673    1.0299 H   0  0  0  0  0  0  0  0  0  0  0  0
   -2.2162    1.6443   -0.2674 H   0  0  0  0  0  0  0  0  0  0  0  0
   -3.2260    0.2447   -0.7301 H   0  0  0  0  0  0  0  0  0  0  0  0
   -0.3359   -1.6823    1.0893 H   0  0  0  0  0  0  0  0  0  0  0  0
   -1.6608   -0.7975    1.8141 H   0  0  0  0  0  0  0  0  0  0  0  0
  1  2  1  0
  2  3  1  0
  3  4  1  0
  4  5  1  0
  4  6  1  0
  6  7  1  0
  6  8  1  0
  1  9  1  0
  1 10  1  0
  1 11  1  0
  2 12  1  0
  3 13  1  0
  3 14  1  0
  4 15  1  6
  5 16  1  0
  6 17  1  6
  7 18  1  0
  7 19  1  0
  7 20  1  0
  8 21  1  0
  8 22  1  0
M  END
$$$$

     RDKit          3D

 22 21  0  0  0  0  0  0  0  0999 V2000
    2.8824    0.0652   -0.5753 C   0  0  0  0  0  0  0  0  0  0  0  0
    2.1721   -0.7842    0.3119 N   0  0  0  0  0  0  0  0  0  0  0  0
    0.9074   -0.3699    0.7337 C   0  0  0  0  0  0  0  0  0  0  0  0
   -0.1249   -0.3814   -0.3558 C   0  0  2  0  0  0  0  0  0  0  0  0
    0.1463    0.4126   -1.4391 O   0  0  0  0  0  0  0  0  0  0  0  0
   -1.4515   -0.0395    0.3052 C   0  0  2  0  0  0  0  0  0  0  0  0
   -2.5841   -0.3527   -0.6141 C   0  0  0  0  0  0  0  0  0  0  0  0
   -1.4068    1.3417    0.7182 N   0  0  0  0  0  0  0  0  0  0  0  0
    2.6624    1.1203   -0.2866 H   0  0  0  0  0  0  0  0  0  0  0  0
    2.5240   -0.0988   -1.6099 H   0  0  0  0  0  0  0  0  0  0  0  0
    3.9775   -0.1152   -0.5451 H   0  0  0  0  0  0  0  0  0  0  0  0
    2.3514   -1.7949    0.2365 H   0  0  0  0  0  0  0  0  0  0  0  0
    0.9499    0.6487    1.1903 H   0  0  0  0  0  0  0  0  0  0  0  0
    0.5296   -1.0882    1.5150 H   0  0  0  0  0  0  0  0  0  0  0  0
   -0.2110   -1.4343   -0.7504 H   0  0  0  0  0  0  0  0  0  0  0  0
    0.3259    1.3466   -1.2236 H   0  0  0  0  0  0  0  0  0  0  0  0
   -1.4744   -0.6500    1.2352 H   0  0  0  0  0  0  0  0  0  0  0  0
   -2.2242   -0.5863   -1.6333 H   0  0  0  0  0  0  0  0  0  0  0  0
   -3.3431    0.4724   -0.6785 H   0  0  0  0  0  0  0  0  0  0  0  0
   -3.1198   -1.2847   -0.2681 H   0  0  0  0  0  0  0  0  0  0  0  0
   -2.2385    1.6078    1.2742 H   0  0  0  0  0  0  0  0  0  0  0  0
   -1.2507    1.9648   -0.0901 H   0  0  0  0  0  0  0  0  0  0  0  0
  1  2  1  0
  2  3  1  0
  3  4  1  0
  4  5  1  0
  4  6  1  0
  6  7  1  0
  6  8  1  0
  1  9  1  0
  1 10  1  0
  1 11  1  0
  2 12  1  0
  3 13  1  0
  3 14  1  0
  4 15  1  6
  5 16  1  0
  6 17  1  1
  7 18  1  0
  7 19  1  0
  7 20  1  0
  8 21  1  0
  8 22  1  0
M  END
$$$$
