
     RDKit          3D

 29 28  0  0  0  0  0  0  0  0999 V2000
    1.2674   -0.5154    1.2661 C   0  0  0  0  0  0  0  0  0  0  0  0
    1.1999   -0.2843   -0.1396 N   0  0  0  0  0  0  0  0  0  0  0  0
    2.1287    0.6359   -0.6878 C   0  0  0  0  0  0  0  0  0  0  0  0
    3.5562    0.2845   -0.7258 C   0  0  0  0  0  0  0  0  0  0  0  0
    4.0702    0.0522    0.5336 O   0  0  0  0  0  0  0  0  0  0  0  0
   -0.1200    0.1045   -0.5920 C   0  0  0  0  0  0  0  0  0  0  0  0
   -1.1579   -0.9594   -0.5004 C   0  0  1  0  0  0  0  0  0  0  0  0
   -1.3181   -1.3891    0.8223 O   0  0  0  0  0  0  0  0  0  0  0  0
   -2.4930   -0.3777   -0.9150 C   0  0  0  0  0  0  0  0  0  0  0  0
   -2.9176    0.7704   -0.0408 C   0  0  0  0  0  0  0  0  0  0  0  0
   -3.0602    0.4266    1.3514 N   0  0  0  0  0  0  0  0  0  0  0  0
    0.4054   -0.0561    1.8219 H   0  0  0  0  0  0  0  0  0  0  0  0
    2.1534   -0.1816    1.7907 H   0  0  0  0  0  0  0  0  0  0  0  0
    1.1561   -1.6010    1.4487 H   0  0  0  0  0  0  0  0  0  0  0  0
    1.7772    0.8807   -1.7338 H   0  0  0  0  0  0  0  0  0  0  0  0
    2.0153    1.6145   -0.1353 H   0  0  0  0  0  0  0  0  0  0  0  0
    4.1041    1.2032   -1.0998 H   0  0  0  0  0  0  0  0  0  0  0  0
    3.8367   -0.4933   -1.4644 H   0  0  0  0  0  0  0  0  0  0  0  0
    4.2351    0.9027    1.0272 H   0  0  0  0  0  0  0  0  0  0  0  0
   -0.0369    0.4559   -1.6399 H   0  0  0  0  0  0  0  0  0  0  0  0
   -0.4248    0.9542    0.0459 H   0  0  0  0  0  0  0  0  0  0  0  0
   -0.9479   -1.8192   -1.1777 H   0  0  0  0  0  0  0  0  0  0  0  0
   -1.8361   -2.2433    0.8604 H   0  0  0  0  0  0  0  0  0  0  0  0
   -3.3164   -1.1263   -0.9089 H   0  0  0  0  0  0  0  0  0  0  0  0
   -2.4232    0.0262   -1.9514 H   0  0  0  0  0  0  0  0  0  0  0  0
   -2.2987    1.6739   -0.1272 H   0  0  0  0  0  0  0  0  0  0  0  0
   -3.9371    1.0894   -0.4155 H   0  0  0  0  0  0  0  0  0  0  0  0
   -3.4408   -0.5230    1.4178 H   0  0  0  0  0  0  0  0  0  0  0  0
   -2.1769    0.4948    1.8695 H   0  0  0  0  0  0  0  0  0  0  0  0
  1  2  1  0
  2  3  1  0
  3  4  1  0
  4  5  1  0
  2  6  1  0
  6  7  1  0
  7  8  1  0
  7  9  1  0
  9 10  1  0
 10 11  1  0
  1 12  1  0
  1 13  1  0
  1 14  1  0
  3 15  1  0
  3 16  1  0
  4 17  1  0
  4 18  1  0
  5 19  1  0
  6 20  1  0
  6 21  1  0
  7 22  1  6
  8 23  1  0
  9 24  1  0
  9 25  1  0
 10 26  1  0
 10 27  1  0
 11 28  1  0
 11 29  1  0
M  END
$$$$

     RDKit          3D

 29 28  0  0  0  0  0  0  0  0999 V2000
   -2.5036   -1.8503   -0.2965 C   0  0  0  0  0  0  0  0  0  0  0  0
   -1.6373   -0.7007    0.2283 N   0  0  0  0  0  0  0  0  0  0  0  0
   -2.3135    0.4443   -0.2603 C   0  0  0  0  0  0  0  0  0  0  0  0
   -1.8173    1.7393    0.2619 C   0  0  0  0  0  0  0  0  0  0  0  0
   -2.6217    2.7914   -0.3009 O   0  0  0  0  0  0  0  0  0  0  0  0
   -0.3252   -0.9883   -0.2019 C   0  0  0  0  0  0  0  0  0  0  0  0
    0.8276   -0.2402    0.3713 C   0  0  1  0  0  0  0  0  0  0  0  0
    0.8656   -0.3874    1.7825 O   0  0  0  0  0  0  0  0  0  0  0  0
    2.1433   -0.9017   -0.1326 C   0  0  0  0  0  0  0  0  0  0  0  0
    3.2752   -0.1048    0.4736 C   0  0  0  0  0  0  0  0  0  0  0  0
    3.1699    1.2891    0.0215 N   0  0  0  0  0  0  0  0  0  0  0  0
   -2.0592   -2.7639    0.0715 H   0  0  0  0  0  0  0  0  0  0  0  0
   -3.4650   -1.6651    0.2068 H   0  0  0  0  0  0  0  0  0  0  0  0
   -2.6365   -1.7421   -1.3712 H   0  0  0  0  0  0  0  0  0  0  0  0
   -2.2264    0.4262   -1.4026 H   0  0  0  0  0  0  0  0  0  0  0  0
   -3.4146    0.3003   -0.0902 H   0  0  0  0  0  0  0  0  0  0  0  0
   -0.8051    1.9412   -0.1111 H   0  0  0  0  0  0  0  0  0  0  0  0
   -1.9027    1.7547    1.3636 H   0  0  0  0  0  0  0  0  0  0  0  0
   -3.5510    2.4448   -0.1722 H   0  0  0  0  0  0  0  0  0  0  0  0
   -0.3178   -0.7777   -1.3290 H   0  0  0  0  0  0  0  0  0  0  0  0
   -0.1323   -2.1066   -0.1918 H   0  0  0  0  0  0  0  0  0  0  0  0
    0.9343    0.8087    0.1480 H   0  0  0  0  0  0  0  0  0  0  0  0
    1.3398    0.4034    2.1304 H   0  0  0  0  0  0  0  0  0  0  0  0
    2.2069   -1.9511    0.1879 H   0  0  0  0  0  0  0  0  0  0  0  0
    2.1876   -0.7622   -1.2262 H   0  0  0  0  0  0  0  0  0  0  0  0
    3.2283   -0.1203    1.5856 H   0  0  0  0  0  0  0  0  0  0  0  0
    4.2499   -0.5228    0.1527 H   0  0  0  0  0  0  0  0  0  0  0  0
    3.8275    1.8946    0.5627 H   0  0  0  0  0  0  0  0  0  0  0  0
    3.4734    1.3475   -0.9923 H   0  0  0  0  0  0  0  0  0  0  0  0
  1  2  1  0
  2  3  1  0
  3  4  1  0
  4  5  1  0
  2  6  1  0
  6  7  1  0
  7  8  1  0
  7  9  1  0
  9 10  1  0
 10 11  1  0
  1 12  1  0
  1 13  1  0
  1 14  1  0
  3 15  1  0
  3 16  1  0
  4 17  1  0
  4 18  1  0
  5 19  1  0
  6 20  1  0
  6 21  1  0
  7 22  1  1
  8 23  1  0
  9 24  1  0
  9 25  1  0
 10 26  1  0
 10 27  1  0
 11 28  1  0
 11 29  1  0
M  END
$$$$

     RDKit          3D

 29 28  0  0  0  0  0  0  0  0999 V2000
   -2.2046   -1.4357    0.7096 C   0  0  0  0  0  0  0  0  0  0  0  0
   -1.1681   -0.5348    0.2724 N   0  0  0  0  0  0  0  0  0  0  0  0
   -1.7448    0.7694    0.0433 C   0  0  0  0  0  0  0  0  0  0  0  0
   -2.6380    0.6750   -1.1762 C   0  0  0  0  0  0  0  0  0  0  0  0
   -3.1951    1.9375   -1.3924 O   0  0  0  0  0  0  0  0  0  0  0  0
   -0.1409   -0.5228    1.2867 C   0  0  0  0  0  0  0  0  0  0  0  0
    1.0369    0.3344    0.9055 C   0  0  1  0  0  0  0  0  0  0  0  0
    1.9557    0.2883    1.9736 O   0  0  0  0  0  0  0  0  0  0  0  0
    1.7559   -0.3605   -0.2514 C   0  0  0  0  0  0  0  0  0  0  0  0
    2.9474    0.4342   -0.7061 C   0  0  0  0  0  0  0  0  0  0  0  0
    3.5568   -0.3008   -1.7922 N   0  0  0  0  0  0  0  0  0  0  0  0
   -2.0657   -2.3883    0.1208 H   0  0  0  0  0  0  0  0  0  0  0  0
   -3.2182   -1.0524    0.6562 H   0  0  0  0  0  0  0  0  0  0  0  0
   -2.0441   -1.7713    1.7742 H   0  0  0  0  0  0  0  0  0  0  0  0
   -2.4089    1.0855    0.8887 H   0  0  0  0  0  0  0  0  0  0  0  0
   -1.0333    1.5731   -0.1242 H   0  0  0  0  0  0  0  0  0  0  0  0
   -1.9937    0.4747   -2.0732 H   0  0  0  0  0  0  0  0  0  0  0  0
   -3.3736   -0.1322   -1.1409 H   0  0  0  0  0  0  0  0  0  0  0  0
   -3.9788    2.0703   -0.7925 H   0  0  0  0  0  0  0  0  0  0  0  0
    0.2453   -1.5682    1.3524 H   0  0  0  0  0  0  0  0  0  0  0  0
   -0.5041   -0.2535    2.2964 H   0  0  0  0  0  0  0  0  0  0  0  0
    0.8395    1.3581    0.6476 H   0  0  0  0  0  0  0  0  0  0  0  0
    1.7977   -0.4731    2.5561 H   0  0  0  0  0  0  0  0  0  0  0  0
    1.0580   -0.4943   -1.0995 H   0  0  0  0  0  0  0  0  0  0  0  0
    2.1296   -1.3694    0.1059 H   0  0  0  0  0  0  0  0  0  0  0  0
    2.6092    1.4321   -1.0830 H   0  0  0  0  0  0  0  0  0  0  0  0
    3.6587    0.5746    0.1253 H   0  0  0  0  0  0  0  0  0  0  0  0
    3.6405    0.3069   -2.6255 H   0  0  0  0  0  0  0  0  0  0  0  0
    4.4808   -0.6572   -1.4574 H   0  0  0  0  0  0  0  0  0  0  0  0
  1  2  1  0
  2  3  1  0
  3  4  1  0
  4  5  1  0
  2  6  1  0
  6  7  1  0
  7  8  1  0
  7  9  1  0
  9 10  1  0
 10 11  1  0
  1 12  1  0
  1 13  1  0
  1 14  1  0
  3 15  1  0
  3 16  1  0
  4 17  1  0
  4 18  1  0
  5 19  1  0
  6 20  1  0
  6 21  1  0
  7 22  1  6
  8 23  1  0
  9 24  1  0
  9 25  1  0
 10 26  1  0
 10 27  1  0
 11 28  1  0
 11 29  1  0
M  END
$$$$

     RDKit          3D

 29 28  0  0  0  0  0  0  0  0999 V2000
    1.5671    1.8594   -0.2050 C   0  0  0  0  0  0  0  0  0  0  0  0
    1.2879    0.5300    0.1987 N   0  0  0  0  0  0  0  0  0  0  0  0
    2.0512   -0.4808   -0.4488 C   0  0  0  0  0  0  0  0  0  0  0  0
    3.5062   -0.4944   -0.1108 C   0  0  0  0  0  0  0  0  0  0  0  0
    4.1052   -1.5472   -0.8365 O   0  0  0  0  0  0  0  0  0  0  0  0
   -0.0718    0.1888    0.3628 C   0  0  0  0  0  0  0  0  0  0  0  0
   -0.8941    0.1492   -0.8839 C   0  0  1  0  0  0  0  0  0  0  0  0
   -0.3467   -0.8014   -1.7679 O   0  0  0  0  0  0  0  0  0  0  0  0
   -2.2691   -0.3780   -0.5369 C   0  0  0  0  0  0  0  0  0  0  0  0
   -3.0043    0.4540    0.4664 C   0  0  0  0  0  0  0  0  0  0  0  0
   -4.3017   -0.2036    0.6629 N   0  0  0  0  0  0  0  0  0  0  0  0
    1.7851    1.9648   -1.3043 H   0  0  0  0  0  0  0  0  0  0  0  0
    2.5376    2.1661    0.2883 H   0  0  0  0  0  0  0  0  0  0  0  0
    0.8229    2.5782    0.1416 H   0  0  0  0  0  0  0  0  0  0  0  0
    1.6392   -1.4693   -0.0881 H   0  0  0  0  0  0  0  0  0  0  0  0
    1.9540   -0.4429   -1.5480 H   0  0  0  0  0  0  0  0  0  0  0  0
    3.7632   -0.5720    0.9434 H   0  0  0  0  0  0  0  0  0  0  0  0
    3.9953    0.4390   -0.4946 H   0  0  0  0  0  0  0  0  0  0  0  0
    3.7273   -2.4344   -0.5922 H   0  0  0  0  0  0  0  0  0  0  0  0
   -0.1557   -0.8012    0.8540 H   0  0  0  0  0  0  0  0  0  0  0  0
   -0.5095    0.9193    1.0959 H   0  0  0  0  0  0  0  0  0  0  0  0
   -0.9479    1.1603   -1.3443 H   0  0  0  0  0  0  0  0  0  0  0  0
   -0.4144   -1.6737   -1.2995 H   0  0  0  0  0  0  0  0  0  0  0  0
   -2.2306   -1.4169   -0.1656 H   0  0  0  0  0  0  0  0  0  0  0  0
   -2.9330   -0.4185   -1.4486 H   0  0  0  0  0  0  0  0  0  0  0  0
   -2.4674    0.5345    1.4283 H   0  0  0  0  0  0  0  0  0  0  0  0
   -3.2208    1.4638    0.0609 H   0  0  0  0  0  0  0  0  0  0  0  0
   -4.6715   -0.0899    1.6189 H   0  0  0  0  0  0  0  0  0  0  0  0
   -4.3037   -1.1833    0.3164 H   0  0  0  0  0  0  0  0  0  0  0  0
  1  2  1  0
  2  3  1  0
  3  4  1  0
  4  5  1  0
  2  6  1  0
  6  7  1  0
  7  8  1  0
  7  9  1  0
  9 10  1  0
 10 11  1  0
  1 12  1  0
  1 13  1  0
  1 14  1  0
  3 15  1  0
  3 16  1  0
  4 17  1  0
  4 18  1  0
  5 19  1  0
  6 20  1  0
  6 21  1  0
  7 22  1  6
  8 23  1  0
  9 24  1  0
  9 25  1  0
 10 26  1  0
 10 27  1  0
 11 28  1  0
 11 29  1  0
M  END
$$$$

     RDKit          3D

 29 28  0  0  0  0  0  0  0  0999 V2000
    1.4632   -1.6803    1.0088 C   0  0  0  0  0  0  0  0  0  0  0  0
    1.3688   -0.6833    0.0384 N   0  0  0  0  0  0  0  0  0  0  0  0
    2.5616   -0.3515   -0.6459 C   0  0  0  0  0  0  0  0  0  0  0  0
    3.5652    0.3002    0.3200 C   0  0  0  0  0  0  0  0  0  0  0  0
    3.0273    1.4313    0.8750 O   0  0  0  0  0  0  0  0  0  0  0  0
    0.1569   -0.4855   -0.6462 C   0  0  0  0  0  0  0  0  0  0  0  0
   -0.9238    0.1434    0.2303 C   0  0  1  0  0  0  0  0  0  0  0  0
   -0.5923    1.4087    0.6705 O   0  0  0  0  0  0  0  0  0  0  0  0
   -2.2022    0.1292   -0.5204 C   0  0  0  0  0  0  0  0  0  0  0  0
   -3.3258    0.7611    0.2686 C   0  0  0  0  0  0  0  0  0  0  0  0
   -4.5363    0.6874   -0.5242 N   0  0  0  0  0  0  0  0  0  0  0  0
    2.4618   -2.1893    1.0219 H   0  0  0  0  0  0  0  0  0  0  0  0
    0.6775   -2.4896    0.8914 H   0  0  0  0  0  0  0  0  0  0  0  0
    1.3553   -1.2279    2.0052 H   0  0  0  0  0  0  0  0  0  0  0  0
    3.0000   -1.1999   -1.1729 H   0  0  0  0  0  0  0  0  0  0  0  0
    2.3571    0.4290   -1.4322 H   0  0  0  0  0  0  0  0  0  0  0  0
    3.8216   -0.4351    1.1046 H   0  0  0  0  0  0  0  0  0  0  0  0
    4.4778    0.5868   -0.2728 H   0  0  0  0  0  0  0  0  0  0  0  0
    3.4836    2.2391    0.6042 H   0  0  0  0  0  0  0  0  0  0  0  0
    0.2659    0.1981   -1.5384 H   0  0  0  0  0  0  0  0  0  0  0  0
   -0.2934   -1.4376   -1.0313 H   0  0  0  0  0  0  0  0  0  0  0  0
   -1.0273   -0.5326    1.1477 H   0  0  0  0  0  0  0  0  0  0  0  0
   -0.6860    2.0700   -0.0670 H   0  0  0  0  0  0  0  0  0  0  0  0
   -2.5002   -0.9571   -0.6652 H   0  0  0  0  0  0  0  0  0  0  0  0
   -2.1548    0.5934   -1.5134 H   0  0  0  0  0  0  0  0  0  0  0  0
   -3.4834    0.3292    1.2541 H   0  0  0  0  0  0  0  0  0  0  0  0
   -3.0988    1.8587    0.3389 H   0  0  0  0  0  0  0  0  0  0  0  0
   -4.2902    0.7776   -1.5431 H   0  0  0  0  0  0  0  0  0  0  0  0
   -4.9289   -0.2734   -0.4000 H   0  0  0  0  0  0  0  0  0  0  0  0
  1  2  1  0
  2  3  1  0
  3  4  1  0
  4  5  1  0
  2  6  1  0
  6  7  1  0
  7  8  1  0
  7  9  1  0
  9 10  1  0
 10 11  1  0
  1 12  1  0
  1 13  1  0
  1 14  1  0
  3 15  1  0
  3 16  1  0
  4 17  1  0
  4 18  1  0
  5 19  1  0
  6 20  1  0
  6 21  1  0
  7 22  1  1
  8 23  1  0
  9 24  1  0
  9 25  1  0
 10 26  1  0
 10 27  1  0
 11 28  1  0
 11 29  1  0
M  END
$$$$

     RDKit          3D

 29 28  0  0  0  0  0  0  0  0999 V2000
   -2.5110   -1.5909   -0.8869 C   0  0  0  0  0  0  0  0  0  0  0  0
   -1.5059   -1.0414   -0.0400 N   0  0  0  0  0  0  0  0  0  0  0  0
   -2.0387   -0.2506    1.0372 C   0  0  0  0  0  0  0  0  0  0  0  0
   -2.7379    0.9917    0.5579 C   0  0  0  0  0  0  0  0  0  0  0  0
   -1.9185    1.8386   -0.1610 O   0  0  0  0  0  0  0  0  0  0  0  0
   -0.3294   -0.5637   -0.6523 C   0  0  0  0  0  0  0  0  0  0  0  0
    0.7596   -0.1924    0.3240 C   0  0  1  0  0  0  0  0  0  0  0  0
    1.1085   -1.3215    1.0745 O   0  0  0  0  0  0  0  0  0  0  0  0
    1.9796    0.2419   -0.4690 C   0  0  0  0  0  0  0  0  0  0  0  0
    3.0289    0.5978    0.5852 C   0  0  0  0  0  0  0  0  0  0  0  0
    4.2197    1.0219   -0.1099 N   0  0  0  0  0  0  0  0  0  0  0  0
   -3.4158   -1.7616   -0.2885 H   0  0  0  0  0  0  0  0  0  0  0  0
   -2.1549   -2.6126   -1.1810 H   0  0  0  0  0  0  0  0  0  0  0  0
   -2.7141   -1.0407   -1.8003 H   0  0  0  0  0  0  0  0  0  0  0  0
   -2.7495   -0.8924    1.6044 H   0  0  0  0  0  0  0  0  0  0  0  0
   -1.2566    0.0383    1.7464 H   0  0  0  0  0  0  0  0  0  0  0  0
   -3.6545    0.7548   -0.0004 H   0  0  0  0  0  0  0  0  0  0  0  0
   -3.0039    1.5709    1.4976 H   0  0  0  0  0  0  0  0  0  0  0  0
   -1.1014    2.1004    0.2792 H   0  0  0  0  0  0  0  0  0  0  0  0
   -0.4693    0.2673   -1.3799 H   0  0  0  0  0  0  0  0  0  0  0  0
    0.0956   -1.3989   -1.2846 H   0  0  0  0  0  0  0  0  0  0  0  0
    0.5329    0.6039    1.0173 H   0  0  0  0  0  0  0  0  0  0  0  0
    1.1087   -2.1375    0.5401 H   0  0  0  0  0  0  0  0  0  0  0  0
    1.6806    1.1816   -0.9924 H   0  0  0  0  0  0  0  0  0  0  0  0
    2.3142   -0.5453   -1.1547 H   0  0  0  0  0  0  0  0  0  0  0  0
    2.6329    1.4091    1.2119 H   0  0  0  0  0  0  0  0  0  0  0  0
    3.2213   -0.3002    1.2224 H   0  0  0  0  0  0  0  0  0  0  0  0
    4.8678    1.4991    0.5249 H   0  0  0  0  0  0  0  0  0  0  0  0
    4.0109    1.5321   -0.9849 H   0  0  0  0  0  0  0  0  0  0  0  0
  1  2  1  0
  2  3  1  0
  3  4  1  0
  4  5  1  0
  2  6  1  0
  6  7  1  0
  7  8  1  0
  7  9  1  0
  9 10  1  0
 10 11  1  0
  1 12  1  0
  1 13  1  0
  1 14  1  0
  3 15  1  0
  3 16  1  0
  4 17  1  0
  4 18  1  0
  5 19  1  0
  6 20  1  0
  6 21  1  0
  7 22  1  1
  8 23  1  0
  9 24  1  0
  9 25  1  0
 10 26  1  0
 10 27  1  0
 11 28  1  0
 11 29  1  0
M  END
$$$$

     RDKit          3D

 29 28  0  0  0  0  0  0  0  0999 V2000
   -1.5486   -1.2019    1.4524 C   0  0  0  0  0  0  0  0  0  0  0  0
   -1.3803   -0.2260    0.4847 N   0  0  0  0  0  0  0  0  0  0  0  0
   -2.4050    0.6219    0.0646 C   0  0  0  0  0  0  0  0  0  0  0  0
   -3.5475    0.0195   -0.6954 C   0  0  0  0  0  0  0  0  0  0  0  0
   -4.4470    1.0263   -1.0292 O   0  0  0  0  0  0  0  0  0  0  0  0
   -0.1221    0.4505    0.4982 C   0  0  0  0  0  0  0  0  0  0  0  0
    1.0279   -0.4432    0.0637 C   0  0  1  0  0  0  0  0  0  0  0  0
    0.7963   -0.9044   -1.2158 O   0  0  0  0  0  0  0  0  0  0  0  0
    2.2948    0.4023    0.0525 C   0  0  0  0  0  0  0  0  0  0  0  0
    3.4755   -0.4327   -0.3837 C   0  0  0  0  0  0  0  0  0  0  0  0
    4.6695    0.4182   -0.3887 N   0  0  0  0  0  0  0  0  0  0  0  0
   -0.5523   -1.6846    1.6710 H   0  0  0  0  0  0  0  0  0  0  0  0
   -1.8996   -0.8660    2.4519 H   0  0  0  0  0  0  0  0  0  0  0  0
   -2.1815   -2.0704    1.1124 H   0  0  0  0  0  0  0  0  0  0  0  0
   -1.9561    1.3795   -0.6522 H   0  0  0  0  0  0  0  0  0  0  0  0
   -2.8113    1.2852    0.8815 H   0  0  0  0  0  0  0  0  0  0  0  0
   -3.2214   -0.4703   -1.6409 H   0  0  0  0  0  0  0  0  0  0  0  0
   -4.0975   -0.7505   -0.1281 H   0  0  0  0  0  0  0  0  0  0  0  0
   -5.3637    0.7150   -0.8631 H   0  0  0  0  0  0  0  0  0  0  0  0
    0.1329    0.8974    1.4832 H   0  0  0  0  0  0  0  0  0  0  0  0
   -0.0912    1.3176   -0.2099 H   0  0  0  0  0  0  0  0  0  0  0  0
    1.1833   -1.2200    0.8143 H   0  0  0  0  0  0  0  0  0  0  0  0
    0.7628   -0.1224   -1.8367 H   0  0  0  0  0  0  0  0  0  0  0  0
    2.2290    1.2737   -0.6109 H   0  0  0  0  0  0  0  0  0  0  0  0
    2.5287    0.8068    1.0694 H   0  0  0  0  0  0  0  0  0  0  0  0
    3.6796   -1.2739    0.2743 H   0  0  0  0  0  0  0  0  0  0  0  0
    3.3433   -0.7413   -1.4626 H   0  0  0  0  0  0  0  0  0  0  0  0
    5.1641    0.3680    0.5445 H   0  0  0  0  0  0  0  0  0  0  0  0
    4.3376    1.4259   -0.5501 H   0  0  0  0  0  0  0  0  0  0  0  0
  1  2  1  0
  2  3  1  0
  3  4  1  0
  4  5  1  0
  2  6  1  0
  6  7  1  0
  7  8  1  0
  7  9  1  0
  9 10  1  0
 10 11  1  0
  1 12  1  0
  1 13  1  0
  1 14  1  0
  3 15  1  0
  3 16  1  0
  4 17  1  0
  4 18  1  0
  5 19  1  0
  6 20  1  0
  6 21  1  0
  7 22  1  1
  8 23  1  0
  9 24  1  0
  9 25  1  0
 10 26  1  0
 10 27  1  0
 11 28  1  0
 11 29  1  0
M  END
$$$$

     RDKit          3D

 29 28  0  0  0  0  0  0  0  0999 V2000
    2.0841   -1.6896    0.1583 C   0  0  0  0  0  0  0  0  0  0  0  0
    1.5217   -0.4315   -0.2280 N   0  0  0  0  0  0  0  0  0  0  0  0
    2.4179    0.5959    0.2665 C   0  0  0  0  0  0  0  0  0  0  0  0
    2.0443    1.9860   -0.1320 C   0  0  0  0  0  0  0  0  0  0  0  0
    3.0002    2.8833    0.4149 O   0  0  0  0  0  0  0  0  0  0  0  0
    0.1840   -0.2818    0.1919 C   0  0  0  0  0  0  0  0  0  0  0  0
   -0.7985   -1.1130   -0.5690 C   0  0  1  0  0  0  0  0  0  0  0  0
   -0.5848   -2.4805   -0.4934 O   0  0  0  0  0  0  0  0  0  0  0  0
   -2.2256   -0.8743   -0.0669 C   0  0  0  0  0  0  0  0  0  0  0  0
   -2.6707    0.5493   -0.2077 C   0  0  0  0  0  0  0  0  0  0  0  0
   -4.0424    0.6860    0.2947 N   0  0  0  0  0  0  0  0  0  0  0  0
    1.5018   -2.5844    0.0174 H   0  0  0  0  0  0  0  0  0  0  0  0
    3.0931   -1.7527   -0.3612 H   0  0  0  0  0  0  0  0  0  0  0  0
    2.3524   -1.6013    1.2552 H   0  0  0  0  0  0  0  0  0  0  0  0
    2.5214    0.5350    1.3734 H   0  0  0  0  0  0  0  0  0  0  0  0
    3.4305    0.3733   -0.1378 H   0  0  0  0  0  0  0  0  0  0  0  0
    1.0894    2.3024    0.3148 H   0  0  0  0  0  0  0  0  0  0  0  0
    2.0719    2.1517   -1.2248 H   0  0  0  0  0  0  0  0  0  0  0  0
    3.9087    2.6452    0.1756 H   0  0  0  0  0  0  0  0  0  0  0  0
    0.0466   -0.5843    1.2857 H   0  0  0  0  0  0  0  0  0  0  0  0
   -0.1667    0.7825    0.1658 H   0  0  0  0  0  0  0  0  0  0  0  0
   -0.7640   -0.8496   -1.6631 H   0  0  0  0  0  0  0  0  0  0  0  0
   -1.3061   -2.9555    0.0033 H   0  0  0  0  0  0  0  0  0  0  0  0
   -2.9217   -1.4767   -0.7287 H   0  0  0  0  0  0  0  0  0  0  0  0
   -2.3365   -1.2384    0.9580 H   0  0  0  0  0  0  0  0  0  0  0  0
   -2.0334    1.2324    0.3576 H   0  0  0  0  0  0  0  0  0  0  0  0
   -2.6950    0.8753   -1.2769 H   0  0  0  0  0  0  0  0  0  0  0  0
   -4.0501    1.2078    1.1844 H   0  0  0  0  0  0  0  0  0  0  0  0
   -4.6723    1.1074   -0.4086 H   0  0  0  0  0  0  0  0  0  0  0  0
  1  2  1  0
  2  3  1  0
  3  4  1  0
  4  5  1  0
  2  6  1  0
  6  7  1  0
  7  8  1  0
  7  9  1  0
  9 10  1  0
 10 11  1  0
  1 12  1  0
  1 13  1  0
  1 14  1  0
  3 15  1  0
  3 16  1  0
  4 17  1  0
  4 18  1  0
  5 19  1  0
  6 20  1  0
  6 21  1  0
  7 22  1  6
  8 23  1  0
  9 24  1  0
  9 25  1  0
 10 26  1  0
 10 27  1  0
 11 28  1  0
 11 29  1  0
M  END
$$$$
