
     RDKit          3D

 22 22  0  0  0  0  0  0  0  0999 V2000
    3.4670    0.9035   -1.1992 N   0  0  0  0  0  0  0  0  0  0  0  0
    2.7575   -0.2166   -0.6302 C   0  0  0  0  0  0  0  0  0  0  0  0
    1.3308    0.1726   -0.2494 C   0  0  0  0  0  0  0  0  0  0  0  0
    0.4829   -1.2278    0.4483 S   0  0  0  0  0  6  0  0  0  0  0  0
    0.4996   -2.3647   -0.5181 O   0  0  0  0  0  0  0  0  0  0  0  0
    1.2400   -1.6272    1.6821 O   0  0  0  0  0  0  0  0  0  0  0  0
   -1.1039   -0.7277    0.8525 N   0  0  0  0  0  0  0  0  0  0  0  0
   -1.8900   -0.2884   -0.2340 C   0  0  1  0  0  0  0  0  0  0  0  0
   -3.3604   -0.2796   -0.2505 C   0  0  0  0  0  0  0  0  0  0  0  0
   -2.6732    1.0099    0.0598 C   0  0  1  0  0  0  0  0  0  0  0  0
   -2.7574    1.4282    1.3537 F   0  0  0  0  0  0  0  0  0  0  0  0
    3.9228    1.4163   -0.4013 H   0  0  0  0  0  0  0  0  0  0  0  0
    2.7527    1.5682   -1.5772 H   0  0  0  0  0  0  0  0  0  0  0  0
    2.7154   -1.0354   -1.3682 H   0  0  0  0  0  0  0  0  0  0  0  0
    3.3010   -0.5760    0.2533 H   0  0  0  0  0  0  0  0  0  0  0  0
    0.8460    0.5261   -1.1915 H   0  0  0  0  0  0  0  0  0  0  0  0
    1.3343    1.0363    0.4334 H   0  0  0  0  0  0  0  0  0  0  0  0
   -1.1145   -0.1195    1.6740 H   0  0  0  0  0  0  0  0  0  0  0  0
   -1.3744   -0.3211   -1.2362 H   0  0  0  0  0  0  0  0  0  0  0  0
   -3.9488   -0.7701    0.5492 H   0  0  0  0  0  0  0  0  0  0  0  0
   -3.8677   -0.3050   -1.2370 H   0  0  0  0  0  0  0  0  0  0  0  0
   -2.5597    1.7980   -0.7004 H   0  0  0  0  0  0  0  0  0  0  0  0
  1  2  1  0
  2  3  1  0
  3  4  1  0
  4  5  2  0
  4  6  2  0
  4  7  1  0
  7  8  1  0
  8  9  1  0
  9 10  1  0
 10 11  1  0
 10  8  1  0
  1 12  1  0
  1 13  1  0
  2 14  1  0
  2 15  1  0
  3 16  1  0
  3 17  1  0
  7 18  1  0
  8 19  1  6
  9 20  1  0
  9 21  1  0
 10 22  1  6
M  END
$$$$

     RDKit          3D

 22 22  0  0  0  0  0  0  0  0999 V2000
   -3.4429    0.9142    0.7325 N   0  0  0  0  0  0  0  0  0  0  0  0
   -2.7955   -0.1887    0.0411 C   0  0  0  0  0  0  0  0  0  0  0  0
   -1.3686    0.2158   -0.2011 C   0  0  0  0  0  0  0  0  0  0  0  0
   -0.4342   -1.0287   -1.0421 S   0  0  0  0  0  6  0  0  0  0  0  0
   -1.0298   -1.3649   -2.3830 O   0  0  0  0  0  0  0  0  0  0  0  0
   -0.3791   -2.3033   -0.2474 O   0  0  0  0  0  0  0  0  0  0  0  0
    1.1603   -0.4073   -1.2362 N   0  0  0  0  0  0  0  0  0  0  0  0
    1.7391   -0.1636    0.0452 C   0  0  1  0  0  0  0  0  0  0  0  0
    3.2015   -0.5296    0.1437 C   0  0  0  0  0  0  0  0  0  0  0  0
    2.7709    0.8862    0.2457 C   0  0  1  0  0  0  0  0  0  0  0  0
    3.0190    1.7619   -0.7922 F   0  0  0  0  0  0  0  0  0  0  0  0
   -3.0028    1.8109    0.4092 H   0  0  0  0  0  0  0  0  0  0  0  0
   -3.3603    0.8420    1.7628 H   0  0  0  0  0  0  0  0  0  0  0  0
   -3.3231   -0.2883   -0.9402 H   0  0  0  0  0  0  0  0  0  0  0  0
   -2.8722   -1.1276    0.6093 H   0  0  0  0  0  0  0  0  0  0  0  0
   -1.3831    1.1118   -0.8564 H   0  0  0  0  0  0  0  0  0  0  0  0
   -0.8629    0.4102    0.7632 H   0  0  0  0  0  0  0  0  0  0  0  0
    1.2095    0.3687   -1.9071 H   0  0  0  0  0  0  0  0  0  0  0  0
    1.0991   -0.4024    0.9149 H   0  0  0  0  0  0  0  0  0  0  0  0
    3.4765   -1.1014    1.0509 H   0  0  0  0  0  0  0  0  0  0  0  0
    3.7641   -0.7799   -0.7890 H   0  0  0  0  0  0  0  0  0  0  0  0
    2.8143    1.3643    1.2616 H   0  0  0  0  0  0  0  0  0  0  0  0
  1  2  1  0
  2  3  1  0
  3  4  1  0
  4  5  2  0
  4  6  2  0
  4  7  1  0
  7  8  1  0
  8  9  1  0
  9 10  1  0
 10 11  1  0
 10  8  1  0
  1 12  1  0
  1 13  1  0
  2 14  1  0
  2 15  1  0
  3 16  1  0
  3 17  1  0
  7 18  1  0
  8 19  1  1
  9 20  1  0
  9 21  1  0
 10 22  1  1
M  END
$$$$

     RDKit          3D

 22 22  0  0  0  0  0  0  0  0999 V2000
    2.7910    1.5088   -0.0015 N   0  0  0  0  0  0  0  0  0  0  0  0
    1.6507    0.6647    0.3968 C   0  0  0  0  0  0  0  0  0  0  0  0
    1.7691   -0.7047   -0.1427 C   0  0  0  0  0  0  0  0  0  0  0  0
    0.4450   -1.7429    0.3655 S   0  0  0  0  0  6  0  0  0  0  0  0
    0.6970   -3.1712   -0.1456 O   0  0  0  0  0  0  0  0  0  0  0  0
    0.4411   -1.8555    1.9010 O   0  0  0  0  0  0  0  0  0  0  0  0
   -1.0723   -1.2122   -0.0946 N   0  0  0  0  0  0  0  0  0  0  0  0
   -1.4549    0.0383    0.4849 C   0  0  1  0  0  0  0  0  0  0  0  0
   -2.2038    1.0088   -0.3698 C   0  0  0  0  0  0  0  0  0  0  0  0
   -2.9162    0.2522    0.6974 C   0  0  1  0  0  0  0  0  0  0  0  0
   -3.7802   -0.7153    0.2480 F   0  0  0  0  0  0  0  0  0  0  0  0
    3.6461    0.9474   -0.1265 H   0  0  0  0  0  0  0  0  0  0  0  0
    2.9533    2.1453    0.8163 H   0  0  0  0  0  0  0  0  0  0  0  0
    0.7881    1.1544   -0.1466 H   0  0  0  0  0  0  0  0  0  0  0  0
    1.4928    0.6756    1.4641 H   0  0  0  0  0  0  0  0  0  0  0  0
    1.7920   -0.6394   -1.2789 H   0  0  0  0  0  0  0  0  0  0  0  0
    2.7581   -1.1673    0.1467 H   0  0  0  0  0  0  0  0  0  0  0  0
   -1.2791   -1.2851   -1.1133 H   0  0  0  0  0  0  0  0  0  0  0  0
   -0.8123    0.5268    1.2496 H   0  0  0  0  0  0  0  0  0  0  0  0
   -2.0897    2.0922   -0.1675 H   0  0  0  0  0  0  0  0  0  0  0  0
   -2.3552    0.7122   -1.4465 H   0  0  0  0  0  0  0  0  0  0  0  0
   -3.2608    0.7666    1.6077 H   0  0  0  0  0  0  0  0  0  0  0  0
  1  2  1  0
  2  3  1  0
  3  4  1  0
  4  5  2  0
  4  6  2  0
  4  7  1  0
  7  8  1  0
  8  9  1  0
  9 10  1  0
 10 11  1  0
 10  8  1  0
  1 12  1  0
  1 13  1  0
  2 14  1  0
  2 15  1  0
  3 16  1  0
  3 17  1  0
  7 18  1  0
  8 19  1  1
  9 20  1  0
  9 21  1  0
 10 22  1  1
M  END
$$$$

     RDKit          3D

 22 22  0  0  0  0  0  0  0  0999 V2000
    1.4278    1.1279    0.8074 N   0  0  0  0  0  0  0  0  0  0  0  0
    2.2218   -0.0537    0.8868 C   0  0  0  0  0  0  0  0  0  0  0  0
    1.4198   -1.2862    0.6125 C   0  0  0  0  0  0  0  0  0  0  0  0
    0.6817   -1.3068   -0.9829 S   0  0  0  0  0  6  0  0  0  0  0  0
   -0.1696   -2.5652   -1.0657 O   0  0  0  0  0  0  0  0  0  0  0  0
    1.6893   -1.4034   -2.0752 O   0  0  0  0  0  0  0  0  0  0  0  0
   -0.3987    0.0202   -1.2185 N   0  0  0  0  0  0  0  0  0  0  0  0
   -1.4794   -0.0412   -0.2684 C   0  0  1  0  0  0  0  0  0  0  0  0
   -2.0536    1.2696    0.1847 C   0  0  0  0  0  0  0  0  0  0  0  0
   -2.8278    0.4338   -0.7669 C   0  0  1  0  0  0  0  0  0  0  0  0
   -2.8715    0.8906   -2.0698 F   0  0  0  0  0  0  0  0  0  0  0  0
    1.0915    1.4716    1.7280 H   0  0  0  0  0  0  0  0  0  0  0  0
    1.8452    1.8683    0.2073 H   0  0  0  0  0  0  0  0  0  0  0  0
    2.6951   -0.1797    1.8848 H   0  0  0  0  0  0  0  0  0  0  0  0
    3.0232    0.0180    0.1216 H   0  0  0  0  0  0  0  0  0  0  0  0
    0.6185   -1.4408    1.3642 H   0  0  0  0  0  0  0  0  0  0  0  0
    2.0971   -2.1548    0.6853 H   0  0  0  0  0  0  0  0  0  0  0  0
    0.0704    0.9402   -1.1376 H   0  0  0  0  0  0  0  0  0  0  0  0
   -1.4485   -0.8952    0.4353 H   0  0  0  0  0  0  0  0  0  0  0  0
   -1.5393    2.1901   -0.1626 H   0  0  0  0  0  0  0  0  0  0  0  0
   -2.4094    1.2524    1.2459 H   0  0  0  0  0  0  0  0  0  0  0  0
   -3.6838   -0.1557   -0.4012 H   0  0  0  0  0  0  0  0  0  0  0  0
  1  2  1  0
  2  3  1  0
  3  4  1  0
  4  5  2  0
  4  6  2  0
  4  7  1  0
  7  8  1  0
  8  9  1  0
  9 10  1  0
 10 11  1  0
 10  8  1  0
  1 12  1  0
  1 13  1  0
  2 14  1  0
  2 15  1  0
  3 16  1  0
  3 17  1  0
  7 18  1  0
  8 19  1  1
  9 20  1  0
  9 21  1  0
 10 22  1  1
M  END
$$$$

     RDKit          3D

 22 22  0  0  0  0  0  0  0  0999 V2000
    2.6532   -0.8587    1.2322 N   0  0  0  0  0  0  0  0  0  0  0  0
    2.8395   -0.2331   -0.0469 C   0  0  0  0  0  0  0  0  0  0  0  0
    1.5115    0.3771   -0.4959 C   0  0  0  0  0  0  0  0  0  0  0  0
    0.3709   -0.9849   -0.5892 S   0  0  0  0  0  6  0  0  0  0  0  0
    0.8570   -2.0131   -1.5711 O   0  0  0  0  0  0  0  0  0  0  0  0
    0.2468   -1.6769    0.7397 O   0  0  0  0  0  0  0  0  0  0  0  0
   -1.1899   -0.4856   -1.0832 N   0  0  0  0  0  0  0  0  0  0  0  0
   -1.6963    0.4463   -0.0930 C   0  0  1  0  0  0  0  0  0  0  0  0
   -2.6540    1.4989   -0.5732 C   0  0  0  0  0  0  0  0  0  0  0  0
   -3.1640    0.3853    0.2551 C   0  0  1  0  0  0  0  0  0  0  0  0
   -3.8943   -0.6183   -0.3870 F   0  0  0  0  0  0  0  0  0  0  0  0
    3.2924   -0.5186    1.9700 H   0  0  0  0  0  0  0  0  0  0  0  0
    2.5586   -1.8760    1.1750 H   0  0  0  0  0  0  0  0  0  0  0  0
    3.6635    0.4773   -0.1004 H   0  0  0  0  0  0  0  0  0  0  0  0
    3.0452   -1.0468   -0.8030 H   0  0  0  0  0  0  0  0  0  0  0  0
    1.1420    1.1022    0.2577 H   0  0  0  0  0  0  0  0  0  0  0  0
    1.6154    0.8296   -1.4810 H   0  0  0  0  0  0  0  0  0  0  0  0
   -1.2367   -0.1271   -2.0431 H   0  0  0  0  0  0  0  0  0  0  0  0
   -1.0508    0.6940    0.7900 H   0  0  0  0  0  0  0  0  0  0  0  0
   -2.5688    2.4882   -0.0881 H   0  0  0  0  0  0  0  0  0  0  0  0
   -2.8492    1.5285   -1.6613 H   0  0  0  0  0  0  0  0  0  0  0  0
   -3.4919    0.6117    1.2914 H   0  0  0  0  0  0  0  0  0  0  0  0
  1  2  1  0
  2  3  1  0
  3  4  1  0
  4  5  2  0
  4  6  2  0
  4  7  1  0
  7  8  1  0
  8  9  1  0
  9 10  1  0
 10 11  1  0
 10  8  1  0
  1 12  1  0
  1 13  1  0
  2 14  1  0
  2 15  1  0
  3 16  1  0
  3 17  1  0
  7 18  1  0
  8 19  1  1
  9 20  1  0
  9 21  1  0
 10 22  1  1
M  END
$$$$

     RDKit          3D

 22 22  0  0  0  0  0  0  0  0999 V2000
   -3.0066    0.8611    0.5216 N   0  0  0  0  0  0  0  0  0  0  0  0
   -2.7939   -0.2017   -0.4174 C   0  0  0  0  0  0  0  0  0  0  0  0
   -1.3100   -0.3313   -0.6748 C   0  0  0  0  0  0  0  0  0  0  0  0
   -0.4977   -0.6963    0.8621 S   0  0  0  0  0  6  0  0  0  0  0  0
   -0.8194    0.3044    1.9175 O   0  0  0  0  0  0  0  0  0  0  0  0
   -1.0001   -2.0378    1.3642 O   0  0  0  0  0  0  0  0  0  0  0  0
    1.1977   -0.8519    0.6109 N   0  0  0  0  0  0  0  0  0  0  0  0
    1.7764    0.3553    0.1181 C   0  0  1  0  0  0  0  0  0  0  0  0
    3.1802    0.7102    0.5912 C   0  0  0  0  0  0  0  0  0  0  0  0
    2.9333    0.2386   -0.8125 C   0  0  1  0  0  0  0  0  0  0  0  0
    3.4097   -1.0238   -1.0920 F   0  0  0  0  0  0  0  0  0  0  0  0
   -3.1128    0.5100    1.5095 H   0  0  0  0  0  0  0  0  0  0  0  0
   -3.8916    1.3880    0.3279 H   0  0  0  0  0  0  0  0  0  0  0  0
   -3.2294   -1.1227   -0.0054 H   0  0  0  0  0  0  0  0  0  0  0  0
   -3.3124    0.0784   -1.3666 H   0  0  0  0  0  0  0  0  0  0  0  0
   -1.0703   -1.1210   -1.3994 H   0  0  0  0  0  0  0  0  0  0  0  0
   -0.9335    0.6569   -1.0074 H   0  0  0  0  0  0  0  0  0  0  0  0
    1.4759   -1.7173    0.1531 H   0  0  0  0  0  0  0  0  0  0  0  0
    1.0464    1.1881   -0.0211 H   0  0  0  0  0  0  0  0  0  0  0  0
    3.3408    1.7996    0.7363 H   0  0  0  0  0  0  0  0  0  0  0  0
    3.6810    0.0155    1.2947 H   0  0  0  0  0  0  0  0  0  0  0  0
    2.9361    0.9978   -1.6409 H   0  0  0  0  0  0  0  0  0  0  0  0
  1  2  1  0
  2  3  1  0
  3  4  1  0
  4  5  2  0
  4  6  2  0
  4  7  1  0
  7  8  1  0
  8  9  1  0
  9 10  1  0
 10 11  1  0
 10  8  1  0
  1 12  1  0
  1 13  1  0
  2 14  1  0
  2 15  1  0
  3 16  1  0
  3 17  1  0
  7 18  1  0
  8 19  1  6
  9 20  1  0
  9 21  1  0
 10 22  1  6
M  END
$$$$

     RDKit          3D

 22 22  0  0  0  0  0  0  0  0999 V2000
    3.6564   -0.7051   -0.5014 N   0  0  0  0  0  0  0  0  0  0  0  0
    2.7822    0.4158   -0.3356 C   0  0  0  0  0  0  0  0  0  0  0  0
    1.3957   -0.0836    0.0439 C   0  0  0  0  0  0  0  0  0  0  0  0
    0.2896    1.2856    0.2562 S   0  0  0  0  0  6  0  0  0  0  0  0
    0.1525    1.9661   -1.0855 O   0  0  0  0  0  0  0  0  0  0  0  0
    0.8291    2.2249    1.2670 O   0  0  0  0  0  0  0  0  0  0  0  0
   -1.2639    0.6862    0.6835 N   0  0  0  0  0  0  0  0  0  0  0  0
   -1.8242   -0.1495   -0.3278 C   0  0  1  0  0  0  0  0  0  0  0  0
   -2.7570   -1.2561    0.0015 C   0  0  0  0  0  0  0  0  0  0  0  0
   -3.3269    0.0197   -0.5223 C   0  0  1  0  0  0  0  0  0  0  0  0
   -4.0153    0.7872    0.4015 F   0  0  0  0  0  0  0  0  0  0  0  0
    4.3762   -0.8007    0.2315 H   0  0  0  0  0  0  0  0  0  0  0  0
    3.1123   -1.5796   -0.6522 H   0  0  0  0  0  0  0  0  0  0  0  0
    2.7094    1.0370   -1.2304 H   0  0  0  0  0  0  0  0  0  0  0  0
    3.1763    1.0580    0.4785 H   0  0  0  0  0  0  0  0  0  0  0  0
    1.0527   -0.7803   -0.7329 H   0  0  0  0  0  0  0  0  0  0  0  0
    1.4471   -0.6131    1.0199 H   0  0  0  0  0  0  0  0  0  0  0  0
   -1.3313    0.3407    1.6443 H   0  0  0  0  0  0  0  0  0  0  0  0
   -1.1934   -0.2936   -1.2306 H   0  0  0  0  0  0  0  0  0  0  0  0
   -2.8481   -1.5089    1.0693 H   0  0  0  0  0  0  0  0  0  0  0  0
   -2.7913   -2.1321   -0.6840 H   0  0  0  0  0  0  0  0  0  0  0  0
   -3.6279    0.0816   -1.5708 H   0  0  0  0  0  0  0  0  0  0  0  0
  1  2  1  0
  2  3  1  0
  3  4  1  0
  4  5  2  0
  4  6  2  0
  4  7  1  0
  7  8  1  0
  8  9  1  0
  9 10  1  0
 10 11  1  0
 10  8  1  0
  1 12  1  0
  1 13  1  0
  2 14  1  0
  2 15  1  0
  3 16  1  0
  3 17  1  0
  7 18  1  0
  8 19  1  6
  9 20  1  0
  9 21  1  0
 10 22  1  6
M  END
$$$$

     RDKit          3D

 22 22  0  0  0  0  0  0  0  0999 V2000
   -3.0878    0.3530   -0.4878 N   0  0  0  0  0  0  0  0  0  0  0  0
   -2.6350   -0.9810   -0.1583 C   0  0  0  0  0  0  0  0  0  0  0  0
   -1.1147   -1.0187   -0.1146 C   0  0  0  0  0  0  0  0  0  0  0  0
   -0.5821    0.1395    1.1379 S   0  0  0  0  0  6  0  0  0  0  0  0
   -1.0848   -0.3753    2.4532 O   0  0  0  0  0  0  0  0  0  0  0  0
   -1.0781    1.5113    0.8595 O   0  0  0  0  0  0  0  0  0  0  0  0
    1.1546    0.1263    1.2193 N   0  0  0  0  0  0  0  0  0  0  0  0
    1.6668    0.5573   -0.0906 C   0  0  1  0  0  0  0  0  0  0  0  0
    2.8642    1.4476   -0.0600 C   0  0  0  0  0  0  0  0  0  0  0  0
    2.9755   -0.0133   -0.4567 C   0  0  1  0  0  0  0  0  0  0  0  0
    3.6679   -0.8323    0.3995 F   0  0  0  0  0  0  0  0  0  0  0  0
   -3.3801    0.9089    0.3359 H   0  0  0  0  0  0  0  0  0  0  0  0
   -3.7594    0.3725   -1.2809 H   0  0  0  0  0  0  0  0  0  0  0  0
   -3.0309   -1.3171    0.8141 H   0  0  0  0  0  0  0  0  0  0  0  0
   -3.0344   -1.6788   -0.9199 H   0  0  0  0  0  0  0  0  0  0  0  0
   -0.7555   -2.0276    0.1554 H   0  0  0  0  0  0  0  0  0  0  0  0
   -0.6744   -0.7323   -1.0835 H   0  0  0  0  0  0  0  0  0  0  0  0
    1.4626   -0.8724    1.3769 H   0  0  0  0  0  0  0  0  0  0  0  0
    0.9248    0.8039   -0.8640 H   0  0  0  0  0  0  0  0  0  0  0  0
    3.3471    1.7214    0.9084 H   0  0  0  0  0  0  0  0  0  0  0  0
    3.0256    2.1695   -0.8682 H   0  0  0  0  0  0  0  0  0  0  0  0
    3.1283   -0.2625   -1.5270 H   0  0  0  0  0  0  0  0  0  0  0  0
  1  2  1  0
  2  3  1  0
  3  4  1  0
  4  5  2  0
  4  6  2  0
  4  7  1  0
  7  8  1  0
  8  9  1  0
  9 10  1  0
 10 11  1  0
 10  8  1  0
  1 12  1  0
  1 13  1  0
  2 14  1  0
  2 15  1  0
  3 16  1  0
  3 17  1  0
  7 18  1  0
  8 19  1  6
  9 20  1  0
  9 21  1  0
 10 22  1  6
M  END
$$$$
