
     RDKit          3D

 30 30  0  0  0  0  0  0  0  0999 V2000
   -3.5291    0.8453    0.0253 C   0  0  0  0  0  0  0  0  0  0  0  0
   -3.0528   -0.3939    0.6906 C   0  0  1  0  0  0  0  0  0  0  0  0
   -3.0159   -1.5231   -0.2200 N   0  0  0  0  0  0  0  0  0  0  0  0
   -1.6775   -1.0759   -0.5416 C   0  0  0  0  0  0  0  0  0  0  0  0
   -1.5916   -0.6186    0.9289 C   0  0  1  0  0  0  0  0  0  0  0  0
   -0.7008    0.4049    1.1864 N   0  0  0  0  0  0  0  0  0  0  0  0
   -0.2226    1.3419    0.2971 C   0  0  0  0  0  0  0  0  0  0  0  0
    0.8322    0.8588   -0.6864 C   0  0  0  0  0  0  0  0  0  0  0  0
    1.9651    0.3953   -0.0047 O   0  0  0  0  0  0  0  0  0  0  0  0
    2.8951   -0.0245   -0.9487 C   0  0  0  0  0  0  0  0  0  0  0  0
    4.1616   -0.5466   -0.2619 C   0  0  0  0  0  0  0  0  0  0  0  0
    5.0942   -0.9627   -1.2145 O   0  0  0  0  0  0  0  0  0  0  0  0
   -3.1237    1.7918    0.4554 H   0  0  0  0  0  0  0  0  0  0  0  0
   -4.6613    0.9216    0.1953 H   0  0  0  0  0  0  0  0  0  0  0  0
   -3.4444    0.8926   -1.0724 H   0  0  0  0  0  0  0  0  0  0  0  0
   -3.6578   -0.6444    1.6332 H   0  0  0  0  0  0  0  0  0  0  0  0
   -3.0102   -2.4208    0.3060 H   0  0  0  0  0  0  0  0  0  0  0  0
   -0.9666   -1.8450   -0.8086 H   0  0  0  0  0  0  0  0  0  0  0  0
   -1.7894   -0.1895   -1.2202 H   0  0  0  0  0  0  0  0  0  0  0  0
   -1.4791   -1.5699    1.5200 H   0  0  0  0  0  0  0  0  0  0  0  0
    0.0571    0.0831    1.8575 H   0  0  0  0  0  0  0  0  0  0  0  0
   -0.9889    1.8319   -0.3339 H   0  0  0  0  0  0  0  0  0  0  0  0
    0.2681    2.1803    0.8881 H   0  0  0  0  0  0  0  0  0  0  0  0
    1.1526    1.7438   -1.2728 H   0  0  0  0  0  0  0  0  0  0  0  0
    0.4268    0.0898   -1.3269 H   0  0  0  0  0  0  0  0  0  0  0  0
    2.5389   -0.9022   -1.5517 H   0  0  0  0  0  0  0  0  0  0  0  0
    3.2071    0.7686   -1.6583 H   0  0  0  0  0  0  0  0  0  0  0  0
    4.5864    0.2367    0.3751 H   0  0  0  0  0  0  0  0  0  0  0  0
    3.9424   -1.4271    0.3926 H   0  0  0  0  0  0  0  0  0  0  0  0
    5.7841   -0.2424   -1.3366 H   0  0  0  0  0  0  0  0  0  0  0  0
  1  2  1  0
  2  3  1  0
  3  4  1  0
  4  5  1  0
  5  6  1  0
  6  7  1  0
  7  8  1  0
  8  9  1  0
  9 10  1  0
 10 11  1  0
 11 12  1  0
  5  2  1  0
  1 13  1  0
  1 14  1  0
  1 15  1  0
  2 16  1  1
  3 17  1  0
  4 18  1  0
  4 19  1  0
  5 20  1  1
  6 21  1  0
  7 22  1  0
  7 23  1  0
  8 24  1  0
  8 25  1  0
 10 26  1  0
 10 27  1  0
 11 28  1  0
 11 29  1  0
 12 30  1  0
M  END
$$$$

     RDKit          3D

 30 30  0  0  0  0  0  0  0  0999 V2000
   -2.5989   -0.6967    1.7887 C   0  0  0  0  0  0  0  0  0  0  0  0
   -3.1157   -0.0221    0.5592 C   0  0  1  0  0  0  0  0  0  0  0  0
   -2.9284    1.4372    0.5483 N   0  0  0  0  0  0  0  0  0  0  0  0
   -2.8035    1.3058   -0.8945 C   0  0  0  0  0  0  0  0  0  0  0  0
   -2.2021   -0.0449   -0.6496 C   0  0  1  0  0  0  0  0  0  0  0  0
   -0.8269   -0.0666   -0.2502 N   0  0  0  0  0  0  0  0  0  0  0  0
    0.0389    0.1252   -1.4077 C   0  0  0  0  0  0  0  0  0  0  0  0
    1.5084    0.0999   -0.9889 C   0  0  0  0  0  0  0  0  0  0  0  0
    1.8608   -1.0754   -0.4134 O   0  0  0  0  0  0  0  0  0  0  0  0
    3.1633   -1.1903   -0.0441 C   0  0  0  0  0  0  0  0  0  0  0  0
    3.6973   -0.2495    0.9714 C   0  0  0  0  0  0  0  0  0  0  0  0
    3.6628    1.0808    0.6684 O   0  0  0  0  0  0  0  0  0  0  0  0
   -2.7272   -1.7810    1.6656 H   0  0  0  0  0  0  0  0  0  0  0  0
   -3.1983   -0.3344    2.6473 H   0  0  0  0  0  0  0  0  0  0  0  0
   -1.5371   -0.4165    1.9104 H   0  0  0  0  0  0  0  0  0  0  0  0
   -4.1872   -0.2239    0.3290 H   0  0  0  0  0  0  0  0  0  0  0  0
   -1.9755    1.6378    0.9387 H   0  0  0  0  0  0  0  0  0  0  0  0
   -2.1456    2.0513   -1.3788 H   0  0  0  0  0  0  0  0  0  0  0  0
   -3.8014    1.2320   -1.3526 H   0  0  0  0  0  0  0  0  0  0  0  0
   -2.5215   -0.8547   -1.3357 H   0  0  0  0  0  0  0  0  0  0  0  0
   -0.6288   -1.0622    0.0711 H   0  0  0  0  0  0  0  0  0  0  0  0
   -0.1438    1.1422   -1.8089 H   0  0  0  0  0  0  0  0  0  0  0  0
   -0.1770   -0.5970   -2.1930 H   0  0  0  0  0  0  0  0  0  0  0  0
    2.0999    0.3049   -1.9020 H   0  0  0  0  0  0  0  0  0  0  0  0
    1.6662    0.9974   -0.3201 H   0  0  0  0  0  0  0  0  0  0  0  0
    3.4133   -2.2578    0.2594 H   0  0  0  0  0  0  0  0  0  0  0  0
    3.8229   -1.0617   -0.9631 H   0  0  0  0  0  0  0  0  0  0  0  0
    4.7905   -0.5104    1.1133 H   0  0  0  0  0  0  0  0  0  0  0  0
    3.2625   -0.4379    1.9871 H   0  0  0  0  0  0  0  0  0  0  0  0
    4.5320    1.4686    0.4446 H   0  0  0  0  0  0  0  0  0  0  0  0
  1  2  1  0
  2  3  1  0
  3  4  1  0
  4  5  1  0
  5  6  1  0
  6  7  1  0
  7  8  1  0
  8  9  1  0
  9 10  1  0
 10 11  1  0
 11 12  1  0
  5  2  1  0
  1 13  1  0
  1 14  1  0
  1 15  1  0
  2 16  1  6
  3 17  1  0
  4 18  1  0
  4 19  1  0
  5 20  1  6
  6 21  1  0
  7 22  1  0
  7 23  1  0
  8 24  1  0
  8 25  1  0
 10 26  1  0
 10 27  1  0
 11 28  1  0
 11 29  1  0
 12 30  1  0
M  END
$$$$

     RDKit          3D

 30 30  0  0  0  0  0  0  0  0999 V2000
    2.7548    1.2278   -0.8705 C   0  0  0  0  0  0  0  0  0  0  0  0
    2.8723    0.0159   -0.0589 C   0  0  1  0  0  0  0  0  0  0  0  0
    3.0501    0.1872    1.3927 N   0  0  0  0  0  0  0  0  0  0  0  0
    2.6184   -1.2240    1.4375 C   0  0  0  0  0  0  0  0  0  0  0  0
    1.6974   -0.8135    0.2621 C   0  0  1  0  0  0  0  0  0  0  0  0
    0.5243   -0.3617    0.7607 N   0  0  0  0  0  0  0  0  0  0  0  0
   -0.3713    0.5025    0.2000 C   0  0  0  0  0  0  0  0  0  0  0  0
   -1.0314   -0.1513   -1.0033 C   0  0  0  0  0  0  0  0  0  0  0  0
   -1.9552    0.6672   -1.6244 O   0  0  0  0  0  0  0  0  0  0  0  0
   -2.9872    1.0539   -0.8029 C   0  0  0  0  0  0  0  0  0  0  0  0
   -3.7978   -0.0837   -0.2443 C   0  0  0  0  0  0  0  0  0  0  0  0
   -4.7960    0.5064    0.5640 O   0  0  0  0  0  0  0  0  0  0  0  0
    2.0962    1.0473   -1.7651 H   0  0  0  0  0  0  0  0  0  0  0  0
    3.7556    1.4874   -1.3296 H   0  0  0  0  0  0  0  0  0  0  0  0
    2.4543    2.1576   -0.3323 H   0  0  0  0  0  0  0  0  0  0  0  0
    3.7181   -0.6427   -0.4036 H   0  0  0  0  0  0  0  0  0  0  0  0
    4.0220    0.2442    1.7103 H   0  0  0  0  0  0  0  0  0  0  0  0
    3.3890   -1.8858    1.0426 H   0  0  0  0  0  0  0  0  0  0  0  0
    2.0837   -1.5078    2.3416 H   0  0  0  0  0  0  0  0  0  0  0  0
    1.6035   -1.6708   -0.4627 H   0  0  0  0  0  0  0  0  0  0  0  0
    0.1751   -0.8916    1.5699 H   0  0  0  0  0  0  0  0  0  0  0  0
   -0.0424    1.4983   -0.1208 H   0  0  0  0  0  0  0  0  0  0  0  0
   -1.2202    0.6907    0.9241 H   0  0  0  0  0  0  0  0  0  0  0  0
   -0.2544   -0.4565   -1.7482 H   0  0  0  0  0  0  0  0  0  0  0  0
   -1.5517   -1.0951   -0.7315 H   0  0  0  0  0  0  0  0  0  0  0  0
   -2.6961    1.7515    0.0011 H   0  0  0  0  0  0  0  0  0  0  0  0
   -3.7070    1.6402   -1.4487 H   0  0  0  0  0  0  0  0  0  0  0  0
   -3.2333   -0.7873    0.3752 H   0  0  0  0  0  0  0  0  0  0  0  0
   -4.3392   -0.5595   -1.0897 H   0  0  0  0  0  0  0  0  0  0  0  0
   -4.8318    0.0719    1.4547 H   0  0  0  0  0  0  0  0  0  0  0  0
  1  2  1  0
  2  3  1  0
  3  4  1  0
  4  5  1  0
  5  6  1  0
  6  7  1  0
  7  8  1  0
  8  9  1  0
  9 10  1  0
 10 11  1  0
 11 12  1  0
  5  2  1  0
  1 13  1  0
  1 14  1  0
  1 15  1  0
  2 16  1  6
  3 17  1  0
  4 18  1  0
  4 19  1  0
  5 20  1  6
  6 21  1  0
  7 22  1  0
  7 23  1  0
  8 24  1  0
  8 25  1  0
 10 26  1  0
 10 27  1  0
 11 28  1  0
 11 29  1  0
 12 30  1  0
M  END
$$$$

     RDKit          3D

 30 30  0  0  0  0  0  0  0  0999 V2000
   -2.8508   -0.1468   -1.1564 C   0  0  0  0  0  0  0  0  0  0  0  0
   -2.3267    1.0717   -0.4065 C   0  0  1  0  0  0  0  0  0  0  0  0
   -3.3943    1.6198    0.4550 N   0  0  0  0  0  0  0  0  0  0  0  0
   -2.9458    0.6493    1.4705 C   0  0  0  0  0  0  0  0  0  0  0  0
   -1.5896    0.7307    0.8843 C   0  0  1  0  0  0  0  0  0  0  0  0
   -0.7616   -0.4227    0.8115 N   0  0  0  0  0  0  0  0  0  0  0  0
    0.3282   -0.1920   -0.0932 C   0  0  0  0  0  0  0  0  0  0  0  0
    1.1594   -1.4281   -0.3442 C   0  0  0  0  0  0  0  0  0  0  0  0
    2.2009   -1.1871   -1.2089 O   0  0  0  0  0  0  0  0  0  0  0  0
    3.1294   -0.2556   -0.7614 C   0  0  0  0  0  0  0  0  0  0  0  0
    3.7890   -0.7091    0.5310 C   0  0  0  0  0  0  0  0  0  0  0  0
    4.6909    0.2946    0.8963 O   0  0  0  0  0  0  0  0  0  0  0  0
   -3.5010   -0.7814   -0.5305 H   0  0  0  0  0  0  0  0  0  0  0  0
   -3.5389    0.2782   -1.9468 H   0  0  0  0  0  0  0  0  0  0  0  0
   -2.0572   -0.6732   -1.6694 H   0  0  0  0  0  0  0  0  0  0  0  0
   -1.8261    1.7806   -1.0577 H   0  0  0  0  0  0  0  0  0  0  0  0
   -3.1051    2.5777    0.7445 H   0  0  0  0  0  0  0  0  0  0  0  0
   -3.4846   -0.3106    1.4360 H   0  0  0  0  0  0  0  0  0  0  0  0
   -3.0763    1.0913    2.5023 H   0  0  0  0  0  0  0  0  0  0  0  0
   -1.0188    1.6218    1.2444 H   0  0  0  0  0  0  0  0  0  0  0  0
   -1.2399   -1.3152    0.6875 H   0  0  0  0  0  0  0  0  0  0  0  0
    1.0062    0.5827    0.3609 H   0  0  0  0  0  0  0  0  0  0  0  0
    0.0045    0.2226   -1.0569 H   0  0  0  0  0  0  0  0  0  0  0  0
    0.4833   -2.1549   -0.8290 H   0  0  0  0  0  0  0  0  0  0  0  0
    1.4699   -1.8458    0.6333 H   0  0  0  0  0  0  0  0  0  0  0  0
    2.7457    0.7606   -0.6336 H   0  0  0  0  0  0  0  0  0  0  0  0
    3.9368   -0.2355   -1.5273 H   0  0  0  0  0  0  0  0  0  0  0  0
    4.3941   -1.6376    0.3291 H   0  0  0  0  0  0  0  0  0  0  0  0
    3.0791   -0.8305    1.3636 H   0  0  0  0  0  0  0  0  0  0  0  0
    4.2996    0.8443    1.6023 H   0  0  0  0  0  0  0  0  0  0  0  0
  1  2  1  0
  2  3  1  0
  3  4  1  0
  4  5  1  0
  5  6  1  0
  6  7  1  0
  7  8  1  0
  8  9  1  0
  9 10  1  0
 10 11  1  0
 11 12  1  0
  5  2  1  0
  1 13  1  0
  1 14  1  0
  1 15  1  0
  2 16  1  6
  3 17  1  0
  4 18  1  0
  4 19  1  0
  5 20  1  1
  6 21  1  0
  7 22  1  0
  7 23  1  0
  8 24  1  0
  8 25  1  0
 10 26  1  0
 10 27  1  0
 11 28  1  0
 11 29  1  0
 12 30  1  0
M  END
$$$$

     RDKit          3D

 30 30  0  0  0  0  0  0  0  0999 V2000
   -2.6589    0.2179    1.5729 C   0  0  0  0  0  0  0  0  0  0  0  0
   -3.1632    0.3246    0.1715 C   0  0  1  0  0  0  0  0  0  0  0  0
   -3.1556    1.6599   -0.3895 N   0  0  0  0  0  0  0  0  0  0  0  0
   -2.9474    1.0590   -1.6823 C   0  0  0  0  0  0  0  0  0  0  0  0
   -2.3116   -0.1361   -0.9451 C   0  0  1  0  0  0  0  0  0  0  0  0
   -0.9180   -0.0035   -0.9803 N   0  0  0  0  0  0  0  0  0  0  0  0
   -0.1211   -0.6753   -0.0299 C   0  0  0  0  0  0  0  0  0  0  0  0
    1.3734   -0.6157   -0.4040 C   0  0  0  0  0  0  0  0  0  0  0  0
    2.1137   -1.2789    0.5325 O   0  0  0  0  0  0  0  0  0  0  0  0
    3.4604   -1.3795    0.3618 C   0  0  0  0  0  0  0  0  0  0  0  0
    4.1960   -0.0858    0.3485 C   0  0  0  0  0  0  0  0  0  0  0  0
    3.8247    0.7803   -0.6525 O   0  0  0  0  0  0  0  0  0  0  0  0
   -2.2522   -0.7816    1.7836 H   0  0  0  0  0  0  0  0  0  0  0  0
   -3.5795    0.2976    2.2451 H   0  0  0  0  0  0  0  0  0  0  0  0
   -1.9725    1.0166    1.8551 H   0  0  0  0  0  0  0  0  0  0  0  0
   -4.2083   -0.0995    0.0393 H   0  0  0  0  0  0  0  0  0  0  0  0
   -2.3303    2.2315   -0.1095 H   0  0  0  0  0  0  0  0  0  0  0  0
   -3.8936    0.7912   -2.1569 H   0  0  0  0  0  0  0  0  0  0  0  0
   -2.2202    1.5958   -2.3286 H   0  0  0  0  0  0  0  0  0  0  0  0
   -2.6966   -1.1137   -1.3929 H   0  0  0  0  0  0  0  0  0  0  0  0
   -0.5615    0.9920   -1.1026 H   0  0  0  0  0  0  0  0  0  0  0  0
   -0.4087   -1.7210    0.0894 H   0  0  0  0  0  0  0  0  0  0  0  0
   -0.1870   -0.1003    0.9329 H   0  0  0  0  0  0  0  0  0  0  0  0
    1.5177   -1.0847   -1.4089 H   0  0  0  0  0  0  0  0  0  0  0  0
    1.6049    0.4485   -0.4702 H   0  0  0  0  0  0  0  0  0  0  0  0
    3.8575   -1.9800    1.2302 H   0  0  0  0  0  0  0  0  0  0  0  0
    3.7135   -1.9530   -0.5945 H   0  0  0  0  0  0  0  0  0  0  0  0
    4.0966    0.4144    1.3405 H   0  0  0  0  0  0  0  0  0  0  0  0
    5.3018   -0.3095    0.2394 H   0  0  0  0  0  0  0  0  0  0  0  0
    4.5260    1.4888   -0.7426 H   0  0  0  0  0  0  0  0  0  0  0  0
  1  2  1  0
  2  3  1  0
  3  4  1  0
  4  5  1  0
  5  6  1  0
  6  7  1  0
  7  8  1  0
  8  9  1  0
  9 10  1  0
 10 11  1  0
 11 12  1  0
  5  2  1  0
  1 13  1  0
  1 14  1  0
  1 15  1  0
  2 16  1  1
  3 17  1  0
  4 18  1  0
  4 19  1  0
  5 20  1  6
  6 21  1  0
  7 22  1  0
  7 23  1  0
  8 24  1  0
  8 25  1  0
 10 26  1  0
 10 27  1  0
 11 28  1  0
 11 29  1  0
 12 30  1  0
M  END
$$$$

     RDKit          3D

 30 30  0  0  0  0  0  0  0  0999 V2000
   -3.4470    0.4167   -1.2131 C   0  0  0  0  0  0  0  0  0  0  0  0
   -3.1874    0.3703    0.2337 C   0  0  1  0  0  0  0  0  0  0  0  0
   -3.3603   -0.8988    0.9315 N   0  0  0  0  0  0  0  0  0  0  0  0
   -2.4824   -0.2865    1.9606 C   0  0  0  0  0  0  0  0  0  0  0  0
   -1.7559    0.3274    0.7244 C   0  0  1  0  0  0  0  0  0  0  0  0
   -0.9235   -0.7201    0.2021 N   0  0  0  0  0  0  0  0  0  0  0  0
    0.4725   -0.2852    0.2802 C   0  0  0  0  0  0  0  0  0  0  0  0
    1.4022   -1.3900   -0.1257 C   0  0  0  0  0  0  0  0  0  0  0  0
    2.7338   -1.0693   -0.0731 O   0  0  0  0  0  0  0  0  0  0  0  0
    3.0718   -0.0612   -0.9441 C   0  0  0  0  0  0  0  0  0  0  0  0
    4.5841    0.2411   -0.8332 C   0  0  0  0  0  0  0  0  0  0  0  0
    4.8991    0.6390    0.4577 O   0  0  0  0  0  0  0  0  0  0  0  0
   -4.4202   -0.1127   -1.4440 H   0  0  0  0  0  0  0  0  0  0  0  0
   -2.6992   -0.0115   -1.8748 H   0  0  0  0  0  0  0  0  0  0  0  0
   -3.6657    1.4930   -1.4763 H   0  0  0  0  0  0  0  0  0  0  0  0
   -3.7607    1.1426    0.7837 H   0  0  0  0  0  0  0  0  0  0  0  0
   -4.3175   -1.0969    1.2339 H   0  0  0  0  0  0  0  0  0  0  0  0
   -1.8569   -0.9893    2.5088 H   0  0  0  0  0  0  0  0  0  0  0  0
   -2.9801    0.5185    2.5246 H   0  0  0  0  0  0  0  0  0  0  0  0
   -1.3373    1.3112    0.8903 H   0  0  0  0  0  0  0  0  0  0  0  0
   -1.1966   -1.1008   -0.7010 H   0  0  0  0  0  0  0  0  0  0  0  0
    0.7012   -0.0103    1.3214 H   0  0  0  0  0  0  0  0  0  0  0  0
    0.6142    0.5885   -0.3916 H   0  0  0  0  0  0  0  0  0  0  0  0
    1.0970   -1.7799   -1.1299 H   0  0  0  0  0  0  0  0  0  0  0  0
    1.2850   -2.2900    0.5594 H   0  0  0  0  0  0  0  0  0  0  0  0
    2.8890   -0.3594   -2.0099 H   0  0  0  0  0  0  0  0  0  0  0  0
    2.5182    0.8688   -0.7589 H   0  0  0  0  0  0  0  0  0  0  0  0
    4.8488    1.0245   -1.5614 H   0  0  0  0  0  0  0  0  0  0  0  0
    5.1290   -0.6943   -1.1078 H   0  0  0  0  0  0  0  0  0  0  0  0
    5.1448   -0.1050    1.0325 H   0  0  0  0  0  0  0  0  0  0  0  0
  1  2  1  0
  2  3  1  0
  3  4  1  0
  4  5  1  0
  5  6  1  0
  6  7  1  0
  7  8  1  0
  8  9  1  0
  9 10  1  0
 10 11  1  0
 11 12  1  0
  5  2  1  0
  1 13  1  0
  1 14  1  0
  1 15  1  0
  2 16  1  1
  3 17  1  0
  4 18  1  0
  4 19  1  0
  5 20  1  1
  6 21  1  0
  7 22  1  0
  7 23  1  0
  8 24  1  0
  8 25  1  0
 10 26  1  0
 10 27  1  0
 11 28  1  0
 11 29  1  0
 12 30  1  0
M  END
$$$$

     RDKit          3D

 30 30  0  0  0  0  0  0  0  0999 V2000
   -3.6057    0.7971    0.9925 C   0  0  0  0  0  0  0  0  0  0  0  0
   -2.9871   -0.4695    0.4992 C   0  0  1  0  0  0  0  0  0  0  0  0
   -2.9198   -0.6195   -0.9745 N   0  0  0  0  0  0  0  0  0  0  0  0
   -1.7644   -1.4686   -0.6501 C   0  0  0  0  0  0  0  0  0  0  0  0
   -1.4463   -0.4701    0.4351 C   0  0  1  0  0  0  0  0  0  0  0  0
   -1.0001    0.8024    0.0613 N   0  0  0  0  0  0  0  0  0  0  0  0
   -0.0782    1.0207   -0.9573 C   0  0  0  0  0  0  0  0  0  0  0  0
    1.3591    0.6503   -0.6956 C   0  0  0  0  0  0  0  0  0  0  0  0
    1.6318   -0.6456   -0.3967 O   0  0  0  0  0  0  0  0  0  0  0  0
    3.0177   -0.7981   -0.2556 C   0  0  0  0  0  0  0  0  0  0  0  0
    3.6548    0.0849    0.7709 C   0  0  0  0  0  0  0  0  0  0  0  0
    5.0471   -0.1828    0.8275 O   0  0  0  0  0  0  0  0  0  0  0  0
   -4.7051    0.6171    1.0743 H   0  0  0  0  0  0  0  0  0  0  0  0
   -3.2758    0.9173    2.0557 H   0  0  0  0  0  0  0  0  0  0  0  0
   -3.4488    1.6700    0.3754 H   0  0  0  0  0  0  0  0  0  0  0  0
   -3.3803   -1.3843    0.9473 H   0  0  0  0  0  0  0  0  0  0  0  0
   -2.5710    0.2305   -1.4668 H   0  0  0  0  0  0  0  0  0  0  0  0
   -1.0638   -1.6365   -1.4436 H   0  0  0  0  0  0  0  0  0  0  0  0
   -2.1967   -2.3947   -0.1753 H   0  0  0  0  0  0  0  0  0  0  0  0
   -0.9622   -0.9122    1.3016 H   0  0  0  0  0  0  0  0  0  0  0  0
   -1.3022    1.6256    0.6152 H   0  0  0  0  0  0  0  0  0  0  0  0
   -0.3251    0.6742   -1.9674 H   0  0  0  0  0  0  0  0  0  0  0  0
   -0.0285    2.1617   -1.0954 H   0  0  0  0  0  0  0  0  0  0  0  0
    1.7447    1.3337    0.1048 H   0  0  0  0  0  0  0  0  0  0  0  0
    1.9240    0.9240   -1.6265 H   0  0  0  0  0  0  0  0  0  0  0  0
    3.2033   -1.8831   -0.0067 H   0  0  0  0  0  0  0  0  0  0  0  0
    3.4676   -0.6435   -1.2615 H   0  0  0  0  0  0  0  0  0  0  0  0
    3.6322    1.1452    0.3949 H   0  0  0  0  0  0  0  0  0  0  0  0
    3.1973   -0.0077    1.7561 H   0  0  0  0  0  0  0  0  0  0  0  0
    5.1816   -1.1383    0.7611 H   0  0  0  0  0  0  0  0  0  0  0  0
  1  2  1  0
  2  3  1  0
  3  4  1  0
  4  5  1  0
  5  6  1  0
  6  7  1  0
  7  8  1  0
  8  9  1  0
  9 10  1  0
 10 11  1  0
 11 12  1  0
  5  2  1  0
  1 13  1  0
  1 14  1  0
  1 15  1  0
  2 16  1  1
  3 17  1  0
  4 18  1  0
  4 19  1  0
  5 20  1  1
  6 21  1  0
  7 22  1  0
  7 23  1  0
  8 24  1  0
  8 25  1  0
 10 26  1  0
 10 27  1  0
 11 28  1  0
 11 29  1  0
 12 30  1  0
M  END
$$$$

     RDKit          3D

 30 30  0  0  0  0  0  0  0  0999 V2000
   -2.7377   -1.0618    0.5217 C   0  0  0  0  0  0  0  0  0  0  0  0
   -2.9948   -0.4086   -0.7924 C   0  0  1  0  0  0  0  0  0  0  0  0
   -3.9005    0.7376   -0.5933 N   0  0  0  0  0  0  0  0  0  0  0  0
   -2.7131    1.5668   -0.5307 C   0  0  0  0  0  0  0  0  0  0  0  0
   -2.0119    0.5298   -1.3639 C   0  0  1  0  0  0  0  0  0  0  0  0
   -0.6346    0.3772   -1.2289 N   0  0  0  0  0  0  0  0  0  0  0  0
   -0.0112    0.4274    0.0291 C   0  0  0  0  0  0  0  0  0  0  0  0
    1.5066    0.2607   -0.2428 C   0  0  0  0  0  0  0  0  0  0  0  0
    2.2160    0.2971    0.9143 O   0  0  0  0  0  0  0  0  0  0  0  0
    3.5601    0.2031    0.7947 C   0  0  0  0  0  0  0  0  0  0  0  0
    4.1304   -1.0321    0.1737 C   0  0  0  0  0  0  0  0  0  0  0  0
    3.7565   -1.3048   -1.1098 O   0  0  0  0  0  0  0  0  0  0  0  0
   -2.0040   -1.8878    0.4784 H   0  0  0  0  0  0  0  0  0  0  0  0
   -2.5670   -0.3418    1.3485 H   0  0  0  0  0  0  0  0  0  0  0  0
   -3.7067   -1.5893    0.7941 H   0  0  0  0  0  0  0  0  0  0  0  0
   -3.3755   -1.1198   -1.5639 H   0  0  0  0  0  0  0  0  0  0  0  0
   -4.5005    0.8329   -1.4248 H   0  0  0  0  0  0  0  0  0  0  0  0
   -2.3593    1.7009    0.4872 H   0  0  0  0  0  0  0  0  0  0  0  0
   -2.9335    2.5230   -1.0894 H   0  0  0  0  0  0  0  0  0  0  0  0
   -2.2870    0.7323   -2.4473 H   0  0  0  0  0  0  0  0  0  0  0  0
   -0.1171    0.9749   -1.9046 H   0  0  0  0  0  0  0  0  0  0  0  0
   -0.2352   -0.3321    0.7678 H   0  0  0  0  0  0  0  0  0  0  0  0
   -0.1722    1.4227    0.4927 H   0  0  0  0  0  0  0  0  0  0  0  0
    1.8207    1.0433   -0.9457 H   0  0  0  0  0  0  0  0  0  0  0  0
    1.6180   -0.7465   -0.7109 H   0  0  0  0  0  0  0  0  0  0  0  0
    3.9990    1.0733    0.2387 H   0  0  0  0  0  0  0  0  0  0  0  0
    3.9701    0.2047    1.8584 H   0  0  0  0  0  0  0  0  0  0  0  0
    5.2562   -0.9039    0.2404 H   0  0  0  0  0  0  0  0  0  0  0  0
    3.9508   -1.9398    0.8138 H   0  0  0  0  0  0  0  0  0  0  0  0
    3.4775   -2.2396   -1.2887 H   0  0  0  0  0  0  0  0  0  0  0  0
  1  2  1  0
  2  3  1  0
  3  4  1  0
  4  5  1  0
  5  6  1  0
  6  7  1  0
  7  8  1  0
  8  9  1  0
  9 10  1  0
 10 11  1  0
 11 12  1  0
  5  2  1  0
  1 13  1  0
  1 14  1  0
  1 15  1  0
  2 16  1  6
  3 17  1  0
  4 18  1  0
  4 19  1  0
  5 20  1  6
  6 21  1  0
  7 22  1  0
  7 23  1  0
  8 24  1  0
  8 25  1  0
 10 26  1  0
 10 27  1  0
 11 28  1  0
 11 29  1  0
 12 30  1  0
M  END
$$$$
