
     RDKit          3D

 21 21  0  0  0  0  0  0  0  0999 V2000
    3.1715   -0.1553    0.8460 N   0  0  0  0  0  0  0  0  0  0  0  0
    2.1963    0.3731   -0.4489 S   0  0  0  0  0  6  0  0  0  0  0  0
    2.6174    1.7864   -0.8227 O   0  0  0  0  0  0  0  0  0  0  0  0
    2.4962   -0.4664   -1.6813 O   0  0  0  0  0  0  0  0  0  0  0  0
    0.5096    0.3226   -0.0759 N   0  0  0  0  0  0  0  0  0  0  0  0
    0.1403   -1.0270    0.2002 C   0  0  0  0  0  0  0  0  0  0  0  0
   -1.2731   -1.1684    0.7086 C   0  0  0  0  0  0  0  0  0  0  0  0
   -1.7759    0.0035    1.2135 O   0  0  0  0  0  0  0  0  0  0  0  0
   -2.0965    0.9501    0.2817 C   0  0  0  0  0  0  0  0  0  0  0  0
   -1.5048    0.7210   -1.0771 C   0  0  0  0  0  0  0  0  0  0  0  0
   -0.1518    0.9056   -1.0649 O   0  0  0  0  0  0  0  0  0  0  0  0
    3.7745    0.6194    1.2097 H   0  0  0  0  0  0  0  0  0  0  0  0
    2.5976   -0.5737    1.5852 H   0  0  0  0  0  0  0  0  0  0  0  0
    0.2526   -1.6078   -0.7478 H   0  0  0  0  0  0  0  0  0  0  0  0
    0.8853   -1.4500    0.9071 H   0  0  0  0  0  0  0  0  0  0  0  0
   -1.2253   -1.9034    1.5562 H   0  0  0  0  0  0  0  0  0  0  0  0
   -1.8957   -1.6471   -0.0643 H   0  0  0  0  0  0  0  0  0  0  0  0
   -1.7432    1.9613    0.6192 H   0  0  0  0  0  0  0  0  0  0  0  0
   -3.2042    1.0686    0.1363 H   0  0  0  0  0  0  0  0  0  0  0  0
   -1.8329   -0.2339   -1.5334 H   0  0  0  0  0  0  0  0  0  0  0  0
   -1.9378    1.5213   -1.7475 H   0  0  0  0  0  0  0  0  0  0  0  0
  1  2  1  0
  2  3  2  0
  2  4  2  0
  2  5  1  0
  5  6  1  0
  6  7  1  0
  7  8  1  0
  8  9  1  0
  9 10  1  0
 10 11  1  0
 11  5  1  0
  1 12  1  0
  1 13  1  0
  6 14  1  0
  6 15  1  0
  7 16  1  0
  7 17  1  0
  9 18  1  0
  9 19  1  0
 10 20  1  0
 10 21  1  0
M  END
$$$$

     RDKit          3D

 21 21  0  0  0  0  0  0  0  0999 V2000
    2.8397   -0.5542    0.6807 N   0  0  0  0  0  0  0  0  0  0  0  0
    2.0359    0.6510   -0.2724 S   0  0  0  0  0  6  0  0  0  0  0  0
    2.5662    0.7180   -1.6621 O   0  0  0  0  0  0  0  0  0  0  0  0
    2.3011    1.9744    0.3848 O   0  0  0  0  0  0  0  0  0  0  0  0
    0.3442    0.3125   -0.2186 N   0  0  0  0  0  0  0  0  0  0  0  0
    0.0252   -0.9660   -0.7728 C   0  0  0  0  0  0  0  0  0  0  0  0
   -1.1041   -1.5595    0.0737 C   0  0  0  0  0  0  0  0  0  0  0  0
   -2.1603   -0.6615    0.0028 O   0  0  0  0  0  0  0  0  0  0  0  0
   -1.9528    0.4586    0.7705 C   0  0  0  0  0  0  0  0  0  0  0  0
   -1.4915    1.6470   -0.0560 C   0  0  0  0  0  0  0  0  0  0  0  0
   -0.3297    1.3370   -0.7637 O   0  0  0  0  0  0  0  0  0  0  0  0
    2.3893   -1.4863    0.5545 H   0  0  0  0  0  0  0  0  0  0  0  0
    3.8395   -0.5789    0.4497 H   0  0  0  0  0  0  0  0  0  0  0  0
    0.8680   -1.6758   -0.7913 H   0  0  0  0  0  0  0  0  0  0  0  0
   -0.4283   -0.8492   -1.8007 H   0  0  0  0  0  0  0  0  0  0  0  0
   -0.7727   -1.7682    1.1059 H   0  0  0  0  0  0  0  0  0  0  0  0
   -1.3869   -2.5102   -0.3905 H   0  0  0  0  0  0  0  0  0  0  0  0
   -1.2027    0.2971    1.5778 H   0  0  0  0  0  0  0  0  0  0  0  0
   -2.9112    0.7617    1.2410 H   0  0  0  0  0  0  0  0  0  0  0  0
   -1.2257    2.4639    0.6581 H   0  0  0  0  0  0  0  0  0  0  0  0
   -2.2434    1.9888   -0.7715 H   0  0  0  0  0  0  0  0  0  0  0  0
  1  2  1  0
  2  3  2  0
  2  4  2  0
  2  5  1  0
  5  6  1  0
  6  7  1  0
  7  8  1  0
  8  9  1  0
  9 10  1  0
 10 11  1  0
 11  5  1  0
  1 12  1  0
  1 13  1  0
  6 14  1  0
  6 15  1  0
  7 16  1  0
  7 17  1  0
  9 18  1  0
  9 19  1  0
 10 20  1  0
 10 21  1  0
M  END
$$$$

     RDKit          3D

 21 21  0  0  0  0  0  0  0  0999 V2000
    2.6744    0.9662    1.1438 N   0  0  0  0  0  0  0  0  0  0  0  0
    2.0963    0.0008   -0.1626 S   0  0  0  0  0  6  0  0  0  0  0  0
    2.6336   -1.4024   -0.0437 O   0  0  0  0  0  0  0  0  0  0  0  0
    2.6921    0.5785   -1.4248 O   0  0  0  0  0  0  0  0  0  0  0  0
    0.3670    0.0073   -0.2389 N   0  0  0  0  0  0  0  0  0  0  0  0
   -0.1422   -0.5514    0.9730 C   0  0  0  0  0  0  0  0  0  0  0  0
   -1.5218   -0.1348    1.3323 C   0  0  0  0  0  0  0  0  0  0  0  0
   -2.3908   -0.0082    0.2770 O   0  0  0  0  0  0  0  0  0  0  0  0
   -1.8481    0.5113   -0.8678 C   0  0  0  0  0  0  0  0  0  0  0  0
   -1.2340   -0.5430   -1.7654 C   0  0  0  0  0  0  0  0  0  0  0  0
    0.0321   -0.8431   -1.2571 O   0  0  0  0  0  0  0  0  0  0  0  0
    3.6308    0.7017    1.4123 H   0  0  0  0  0  0  0  0  0  0  0  0
    2.6804    1.9893    0.9038 H   0  0  0  0  0  0  0  0  0  0  0  0
    0.5384   -0.2056    1.8037 H   0  0  0  0  0  0  0  0  0  0  0  0
   -0.0390   -1.6745    0.9930 H   0  0  0  0  0  0  0  0  0  0  0  0
   -1.9469   -0.9359    2.0064 H   0  0  0  0  0  0  0  0  0  0  0  0
   -1.4825    0.7789    1.9777 H   0  0  0  0  0  0  0  0  0  0  0  0
   -1.1070    1.3077   -0.6608 H   0  0  0  0  0  0  0  0  0  0  0  0
   -2.6697    0.9838   -1.4583 H   0  0  0  0  0  0  0  0  0  0  0  0
   -1.0787   -0.1160   -2.7765 H   0  0  0  0  0  0  0  0  0  0  0  0
   -1.8842   -1.4106   -1.8690 H   0  0  0  0  0  0  0  0  0  0  0  0
  1  2  1  0
  2  3  2  0
  2  4  2  0
  2  5  1  0
  5  6  1  0
  6  7  1  0
  7  8  1  0
  8  9  1  0
  9 10  1  0
 10 11  1  0
 11  5  1  0
  1 12  1  0
  1 13  1  0
  6 14  1  0
  6 15  1  0
  7 16  1  0
  7 17  1  0
  9 18  1  0
  9 19  1  0
 10 20  1  0
 10 21  1  0
M  END
$$$$

     RDKit          3D

 21 21  0  0  0  0  0  0  0  0999 V2000
    3.2568    0.5521    0.1007 N   0  0  0  0  0  0  0  0  0  0  0  0
    1.9053   -0.5467    0.0209 S   0  0  0  0  0  6  0  0  0  0  0  0
    1.6742   -0.9947   -1.3778 O   0  0  0  0  0  0  0  0  0  0  0  0
    2.3275   -1.7656    0.8287 O   0  0  0  0  0  0  0  0  0  0  0  0
    0.5422    0.1219    0.7773 N   0  0  0  0  0  0  0  0  0  0  0  0
    0.0464    1.3156    0.2223 C   0  0  0  0  0  0  0  0  0  0  0  0
   -1.2831    1.2357   -0.4433 C   0  0  0  0  0  0  0  0  0  0  0  0
   -2.2206    0.6968    0.4186 O   0  0  0  0  0  0  0  0  0  0  0  0
   -2.4369   -0.6350    0.1441 C   0  0  0  0  0  0  0  0  0  0  0  0
   -1.0701   -1.3181    0.1498 C   0  0  0  0  0  0  0  0  0  0  0  0
   -0.3573   -0.7574    1.2094 O   0  0  0  0  0  0  0  0  0  0  0  0
    4.0721    0.0262   -0.2804 H   0  0  0  0  0  0  0  0  0  0  0  0
    3.4218    0.7529    1.1073 H   0  0  0  0  0  0  0  0  0  0  0  0
   -0.0440    2.0779    1.0496 H   0  0  0  0  0  0  0  0  0  0  0  0
    0.8146    1.7438   -0.4637 H   0  0  0  0  0  0  0  0  0  0  0  0
   -1.2645    0.6423   -1.3807 H   0  0  0  0  0  0  0  0  0  0  0  0
   -1.6164    2.2906   -0.6482 H   0  0  0  0  0  0  0  0  0  0  0  0
   -2.9502   -0.7302   -0.8177 H   0  0  0  0  0  0  0  0  0  0  0  0
   -3.0338   -1.1028    0.9359 H   0  0  0  0  0  0  0  0  0  0  0  0
   -0.5868   -1.1986   -0.8203 H   0  0  0  0  0  0  0  0  0  0  0  0
   -1.1974   -2.4067    0.3723 H   0  0  0  0  0  0  0  0  0  0  0  0
  1  2  1  0
  2  3  2  0
  2  4  2  0
  2  5  1  0
  5  6  1  0
  6  7  1  0
  7  8  1  0
  8  9  1  0
  9 10  1  0
 10 11  1  0
 11  5  1  0
  1 12  1  0
  1 13  1  0
  6 14  1  0
  6 15  1  0
  7 16  1  0
  7 17  1  0
  9 18  1  0
  9 19  1  0
 10 20  1  0
 10 21  1  0
M  END
$$$$

     RDKit          3D

 21 21  0  0  0  0  0  0  0  0999 V2000
    3.3347   -0.1813   -0.3263 N   0  0  0  0  0  0  0  0  0  0  0  0
    2.0643   -0.6191    0.7841 S   0  0  0  0  0  6  0  0  0  0  0  0
    2.4405   -0.3216    2.1858 O   0  0  0  0  0  0  0  0  0  0  0  0
    1.8744   -2.1201    0.6256 O   0  0  0  0  0  0  0  0  0  0  0  0
    0.6438    0.1710    0.2814 N   0  0  0  0  0  0  0  0  0  0  0  0
    0.2598   -0.2499   -1.0322 C   0  0  0  0  0  0  0  0  0  0  0  0
   -1.1076   -0.9119   -0.9651 C   0  0  0  0  0  0  0  0  0  0  0  0
   -2.0452    0.1102   -1.2043 O   0  0  0  0  0  0  0  0  0  0  0  0
   -2.4227    0.6903   -0.0123 C   0  0  0  0  0  0  0  0  0  0  0  0
   -1.2563    1.1199    0.8413 C   0  0  0  0  0  0  0  0  0  0  0  0
   -0.3836    0.0647    1.1191 O   0  0  0  0  0  0  0  0  0  0  0  0
    3.4119    0.8799   -0.2942 H   0  0  0  0  0  0  0  0  0  0  0  0
    3.0038   -0.3990   -1.2840 H   0  0  0  0  0  0  0  0  0  0  0  0
    0.2053    0.6726   -1.6695 H   0  0  0  0  0  0  0  0  0  0  0  0
    0.9480   -0.9947   -1.4612 H   0  0  0  0  0  0  0  0  0  0  0  0
   -1.2115   -1.7428   -1.6670 H   0  0  0  0  0  0  0  0  0  0  0  0
   -1.3220   -1.2740    0.0622 H   0  0  0  0  0  0  0  0  0  0  0  0
   -3.0278   -0.0166    0.5931 H   0  0  0  0  0  0  0  0  0  0  0  0
   -3.0131    1.5942   -0.2361 H   0  0  0  0  0  0  0  0  0  0  0  0
   -1.6694    1.5821    1.7548 H   0  0  0  0  0  0  0  0  0  0  0  0
   -0.7274    1.9461    0.2949 H   0  0  0  0  0  0  0  0  0  0  0  0
  1  2  1  0
  2  3  2  0
  2  4  2  0
  2  5  1  0
  5  6  1  0
  6  7  1  0
  7  8  1  0
  8  9  1  0
  9 10  1  0
 10 11  1  0
 11  5  1  0
  1 12  1  0
  1 13  1  0
  6 14  1  0
  6 15  1  0
  7 16  1  0
  7 17  1  0
  9 18  1  0
  9 19  1  0
 10 20  1  0
 10 21  1  0
M  END
$$$$

     RDKit          3D

 21 21  0  0  0  0  0  0  0  0999 V2000
    3.2558    0.5370    0.3740 N   0  0  0  0  0  0  0  0  0  0  0  0
    2.1378   -0.7447    0.2672 S   0  0  0  0  0  6  0  0  0  0  0  0
    2.5915   -1.8303   -0.6526 O   0  0  0  0  0  0  0  0  0  0  0  0
    2.0207   -1.3665    1.6467 O   0  0  0  0  0  0  0  0  0  0  0  0
    0.5716   -0.1810   -0.2702 N   0  0  0  0  0  0  0  0  0  0  0  0
    0.1221    0.7542    0.7317 C   0  0  0  0  0  0  0  0  0  0  0  0
   -1.2543    1.2945    0.4469 C   0  0  0  0  0  0  0  0  0  0  0  0
   -2.1707    0.2666    0.6313 O   0  0  0  0  0  0  0  0  0  0  0  0
   -2.5166   -0.3568   -0.5729 C   0  0  0  0  0  0  0  0  0  0  0  0
   -1.3218   -1.0027   -1.2283 C   0  0  0  0  0  0  0  0  0  0  0  0
   -0.2849   -1.2183   -0.3119 O   0  0  0  0  0  0  0  0  0  0  0  0
    3.5853    0.7527    1.3265 H   0  0  0  0  0  0  0  0  0  0  0  0
    4.0166    0.4421   -0.3178 H   0  0  0  0  0  0  0  0  0  0  0  0
    0.0796    0.2255    1.7062 H   0  0  0  0  0  0  0  0  0  0  0  0
    0.8931    1.5392    0.8300 H   0  0  0  0  0  0  0  0  0  0  0  0
   -1.3395    1.8030   -0.5176 H   0  0  0  0  0  0  0  0  0  0  0  0
   -1.4701    2.0507    1.2382 H   0  0  0  0  0  0  0  0  0  0  0  0
   -3.3177   -1.0839   -0.3274 H   0  0  0  0  0  0  0  0  0  0  0  0
   -2.9729    0.4238   -1.2165 H   0  0  0  0  0  0  0  0  0  0  0  0
   -1.6674   -1.9450   -1.7007 H   0  0  0  0  0  0  0  0  0  0  0  0
   -0.9580   -0.3600   -2.0830 H   0  0  0  0  0  0  0  0  0  0  0  0
  1  2  1  0
  2  3  2  0
  2  4  2  0
  2  5  1  0
  5  6  1  0
  6  7  1  0
  7  8  1  0
  8  9  1  0
  9 10  1  0
 10 11  1  0
 11  5  1  0
  1 12  1  0
  1 13  1  0
  6 14  1  0
  6 15  1  0
  7 16  1  0
  7 17  1  0
  9 18  1  0
  9 19  1  0
 10 20  1  0
 10 21  1  0
M  END
$$$$

     RDKit          3D

 21 21  0  0  0  0  0  0  0  0999 V2000
    2.8928    0.2418   -0.8701 N   0  0  0  0  0  0  0  0  0  0  0  0
    2.2404   -0.4106    0.5633 S   0  0  0  0  0  6  0  0  0  0  0  0
    2.5601   -1.8666    0.7072 O   0  0  0  0  0  0  0  0  0  0  0  0
    2.8075    0.3264    1.7390 O   0  0  0  0  0  0  0  0  0  0  0  0
    0.5191   -0.2441    0.6411 N   0  0  0  0  0  0  0  0  0  0  0  0
    0.0908    1.0913    0.6303 C   0  0  0  0  0  0  0  0  0  0  0  0
   -1.1463    1.4015   -0.1399 C   0  0  0  0  0  0  0  0  0  0  0  0
   -2.2397    0.6429    0.2035 O   0  0  0  0  0  0  0  0  0  0  0  0
   -2.3122   -0.5523   -0.5001 C   0  0  0  0  0  0  0  0  0  0  0  0
   -1.3366   -1.4979    0.1997 C   0  0  0  0  0  0  0  0  0  0  0  0
   -0.0662   -1.0884   -0.2014 O   0  0  0  0  0  0  0  0  0  0  0  0
    2.1373    0.4966   -1.5495 H   0  0  0  0  0  0  0  0  0  0  0  0
    3.5398   -0.4366   -1.3718 H   0  0  0  0  0  0  0  0  0  0  0  0
    0.9057    1.7368    0.2233 H   0  0  0  0  0  0  0  0  0  0  0  0
   -0.0647    1.4727    1.6825 H   0  0  0  0  0  0  0  0  0  0  0  0
   -1.4126    2.4706    0.1129 H   0  0  0  0  0  0  0  0  0  0  0  0
   -0.9773    1.4242   -1.2542 H   0  0  0  0  0  0  0  0  0  0  0  0
   -1.9140   -0.3837   -1.5385 H   0  0  0  0  0  0  0  0  0  0  0  0
   -3.3109   -0.9640   -0.5976 H   0  0  0  0  0  0  0  0  0  0  0  0
   -1.5521   -2.5447    0.0079 H   0  0  0  0  0  0  0  0  0  0  0  0
   -1.3610   -1.3161    1.3124 H   0  0  0  0  0  0  0  0  0  0  0  0
  1  2  1  0
  2  3  2  0
  2  4  2  0
  2  5  1  0
  5  6  1  0
  6  7  1  0
  7  8  1  0
  8  9  1  0
  9 10  1  0
 10 11  1  0
 11  5  1  0
  1 12  1  0
  1 13  1  0
  6 14  1  0
  6 15  1  0
  7 16  1  0
  7 17  1  0
  9 18  1  0
  9 19  1  0
 10 20  1  0
 10 21  1  0
M  END
$$$$

     RDKit          3D

 21 21  0  0  0  0  0  0  0  0999 V2000
    3.1743   -0.2102   -0.4030 N   0  0  0  0  0  0  0  0  0  0  0  0
    2.0596   -0.5061    0.8538 S   0  0  0  0  0  6  0  0  0  0  0  0
    2.5162    0.2306    2.0801 O   0  0  0  0  0  0  0  0  0  0  0  0
    2.1138   -1.9789    1.1844 O   0  0  0  0  0  0  0  0  0  0  0  0
    0.4483   -0.1164    0.4605 N   0  0  0  0  0  0  0  0  0  0  0  0
    0.2205    1.2553    0.1515 C   0  0  0  0  0  0  0  0  0  0  0  0
   -1.3040    1.4279    0.0660 C   0  0  0  0  0  0  0  0  0  0  0  0
   -1.8179    0.7641   -1.0246 O   0  0  0  0  0  0  0  0  0  0  0  0
   -2.2948   -0.4993   -0.7112 C   0  0  0  0  0  0  0  0  0  0  0  0
   -1.2134   -1.4034   -0.2105 C   0  0  0  0  0  0  0  0  0  0  0  0
    0.0392   -0.8729   -0.5852 O   0  0  0  0  0  0  0  0  0  0  0  0
    2.7786   -0.3278   -1.3553 H   0  0  0  0  0  0  0  0  0  0  0  0
    3.6660    0.6749   -0.2635 H   0  0  0  0  0  0  0  0  0  0  0  0
    0.5860    1.4666   -0.8953 H   0  0  0  0  0  0  0  0  0  0  0  0
    0.6334    1.9730    0.8646 H   0  0  0  0  0  0  0  0  0  0  0  0
   -1.5909    2.4802    0.0471 H   0  0  0  0  0  0  0  0  0  0  0  0
   -1.6883    0.9770    1.0199 H   0  0  0  0  0  0  0  0  0  0  0  0
   -2.7258   -0.9542   -1.6187 H   0  0  0  0  0  0  0  0  0  0  0  0
   -3.0809   -0.4433    0.0745 H   0  0  0  0  0  0  0  0  0  0  0  0
   -1.2722   -1.5141    0.8936 H   0  0  0  0  0  0  0  0  0  0  0  0
   -1.2475   -2.4231   -0.6289 H   0  0  0  0  0  0  0  0  0  0  0  0
  1  2  1  0
  2  3  2  0
  2  4  2  0
  2  5  1  0
  5  6  1  0
  6  7  1  0
  7  8  1  0
  8  9  1  0
  9 10  1  0
 10 11  1  0
 11  5  1  0
  1 12  1  0
  1 13  1  0
  6 14  1  0
  6 15  1  0
  7 16  1  0
  7 17  1  0
  9 18  1  0
  9 19  1  0
 10 20  1  0
 10 21  1  0
M  END
$$$$
