
     RDKit          3D

 19 19  0  0  0  0  0  0  0  0999 V2000
   -1.5811    2.0623    0.1342 O   0  0  0  0  0  0  0  0  0  0  0  0
   -2.0342    0.9093    0.3493 C   0  0  0  0  0  0  0  0  0  0  0  0
   -2.5745    0.6606    1.5991 O   0  0  0  0  0  0  0  0  0  0  0  0
   -1.9636   -0.1003   -0.7335 C   0  0  2  0  0  0  0  0  0  0  0  0
   -2.4908   -1.3167   -0.3730 O   0  0  0  0  0  0  0  0  0  0  0  0
   -0.5630   -0.3033   -1.2433 C   0  0  0  0  0  0  0  0  0  0  0  0
    0.3077   -0.8953   -0.2512 N   0  0  0  0  0  0  0  0  0  0  0  0
    1.4530   -0.5134    0.0373 C   0  0  0  0  0  0  0  0  0  0  0  0
    2.3181   -0.9765    0.9135 N   0  0  0  0  0  0  0  0  0  0  0  0
    3.4552   -0.3805    1.0100 N   0  0  0  0  0  0  0  0  0  0  0  0
    3.8726    0.5303    0.4393 C   0  0  0  0  0  0  0  0  0  0  0  0
    2.3717    0.8696   -0.6743 S   0  0  0  0  0  0  0  0  0  0  0  0
   -2.6403    1.3922    2.3217 H   0  0  0  0  0  0  0  0  0  0  0  0
   -2.5643    0.2923   -1.5801 H   0  0  0  0  0  0  0  0  0  0  0  0
   -3.4066   -1.2564    0.0019 H   0  0  0  0  0  0  0  0  0  0  0  0
   -0.1321    0.6330   -1.6678 H   0  0  0  0  0  0  0  0  0  0  0  0
   -0.6244   -1.0239   -2.0853 H   0  0  0  0  0  0  0  0  0  0  0  0
    2.0555   -1.8308    1.5189 H   0  0  0  0  0  0  0  0  0  0  0  0
    4.7413    1.2477    0.2835 H   0  0  0  0  0  0  0  0  0  0  0  0
  1  2  2  0
  2  3  1  0
  2  4  1  0
  4  5  1  0
  4  6  1  0
  6  7  1  0
  7  8  2  3
  8  9  1  0
  9 10  1  0
 10 11  2  0
 11 12  1  0
 12  8  1  0
  3 13  1  0
  4 14  1  6
  5 15  1  0
  6 16  1  0
  6 17  1  0
  9 18  1  0
 11 19  1  0
M  END
$$$$

     RDKit          3D

 19 19  0  0  0  0  0  0  0  0999 V2000
   -2.0480    1.8480    1.0064 O   0  0  0  0  0  0  0  0  0  0  0  0
   -2.3654    0.7273    0.5474 C   0  0  0  0  0  0  0  0  0  0  0  0
   -3.0826   -0.1458    1.3372 O   0  0  0  0  0  0  0  0  0  0  0  0
   -1.9920    0.3056   -0.8279 C   0  0  2  0  0  0  0  0  0  0  0  0
   -2.4632   -0.9776   -1.0900 O   0  0  0  0  0  0  0  0  0  0  0  0
   -0.4955    0.2902   -1.0172 C   0  0  0  0  0  0  0  0  0  0  0  0
    0.1235   -0.6497   -0.1173 N   0  0  0  0  0  0  0  0  0  0  0  0
    1.3789   -0.5254    0.1806 C   0  0  0  0  0  0  0  0  0  0  0  0
    2.3157    0.3570   -0.1909 N   0  0  0  0  0  0  0  0  0  0  0  0
    3.4840    0.1898    0.2990 N   0  0  0  0  0  0  0  0  0  0  0  0
    3.8969   -0.6078    1.0275 C   0  0  0  0  0  0  0  0  0  0  0  0
    2.3076   -1.6143    1.2891 S   0  0  0  0  0  0  0  0  0  0  0  0
   -3.3593    0.0930    2.2904 H   0  0  0  0  0  0  0  0  0  0  0  0
   -2.4171    0.9933   -1.5978 H   0  0  0  0  0  0  0  0  0  0  0  0
   -1.7930   -1.6453   -0.7835 H   0  0  0  0  0  0  0  0  0  0  0  0
   -0.3105   -0.0775   -2.0567 H   0  0  0  0  0  0  0  0  0  0  0  0
   -0.0433    1.2902   -0.9471 H   0  0  0  0  0  0  0  0  0  0  0  0
    2.0682    1.1455   -0.8611 H   0  0  0  0  0  0  0  0  0  0  0  0
    4.7951   -0.9969    1.6001 H   0  0  0  0  0  0  0  0  0  0  0  0
  1  2  2  0
  2  3  1  0
  2  4  1  0
  4  5  1  0
  4  6  1  0
  6  7  1  0
  7  8  2  3
  8  9  1  0
  9 10  1  0
 10 11  2  0
 11 12  1  0
 12  8  1  0
  3 13  1  0
  4 14  1  6
  5 15  1  0
  6 16  1  0
  6 17  1  0
  9 18  1  0
 11 19  1  0
M  END
$$$$

     RDKit          3D

 19 19  0  0  0  0  0  0  0  0999 V2000
   -3.7864    0.3822   -0.6866 O   0  0  0  0  0  0  0  0  0  0  0  0
   -2.6628    0.7693   -0.2831 C   0  0  0  0  0  0  0  0  0  0  0  0
   -2.6284    1.8648    0.5540 O   0  0  0  0  0  0  0  0  0  0  0  0
   -1.4477    0.0392   -0.7208 C   0  0  2  0  0  0  0  0  0  0  0  0
   -1.8103   -1.0129   -1.5568 O   0  0  0  0  0  0  0  0  0  0  0  0
   -0.7309   -0.5846    0.4730 C   0  0  0  0  0  0  0  0  0  0  0  0
    0.4176   -1.2860   -0.0440 N   0  0  0  0  0  0  0  0  0  0  0  0
    1.6106   -0.7431   -0.0136 C   0  0  0  0  0  0  0  0  0  0  0  0
    2.7747   -1.1569   -0.4050 N   0  0  0  0  0  0  0  0  0  0  0  0
    3.7889   -0.3603   -0.2295 N   0  0  0  0  0  0  0  0  0  0  0  0
    3.7984    0.6779    0.2323 C   0  0  0  0  0  0  0  0  0  0  0  0
    1.9751    0.8974    0.6540 S   0  0  0  0  0  0  0  0  0  0  0  0
   -3.3311    2.6116    0.5317 H   0  0  0  0  0  0  0  0  0  0  0  0
   -0.7468    0.6765   -1.2774 H   0  0  0  0  0  0  0  0  0  0  0  0
   -2.7965   -1.0555   -1.6381 H   0  0  0  0  0  0  0  0  0  0  0  0
   -0.4659    0.1922    1.1937 H   0  0  0  0  0  0  0  0  0  0  0  0
   -1.3759   -1.3369    0.9662 H   0  0  0  0  0  0  0  0  0  0  0  0
    2.9200   -2.1129   -0.8576 H   0  0  0  0  0  0  0  0  0  0  0  0
    4.4976    1.5379    0.4921 H   0  0  0  0  0  0  0  0  0  0  0  0
  1  2  2  0
  2  3  1  0
  2  4  1  0
  4  5  1  0
  4  6  1  0
  6  7  1  0
  7  8  2  3
  8  9  1  0
  9 10  1  0
 10 11  2  0
 11 12  1  0
 12  8  1  0
  3 13  1  0
  4 14  1  6
  5 15  1  0
  6 16  1  0
  6 17  1  0
  9 18  1  0
 11 19  1  0
M  END
$$$$

     RDKit          3D

 19 19  0  0  0  0  0  0  0  0999 V2000
   -3.1784   -0.1438    1.3951 O   0  0  0  0  0  0  0  0  0  0  0  0
   -2.7042    0.3109    0.3366 C   0  0  0  0  0  0  0  0  0  0  0  0
   -3.5258    0.8120   -0.6420 O   0  0  0  0  0  0  0  0  0  0  0  0
   -1.2251    0.3169    0.1170 C   0  0  2  0  0  0  0  0  0  0  0  0
   -0.9424    0.8758   -1.1408 O   0  0  0  0  0  0  0  0  0  0  0  0
   -0.7754   -1.1237    0.1673 C   0  0  0  0  0  0  0  0  0  0  0  0
    0.6037   -1.3395   -0.0539 N   0  0  0  0  0  0  0  0  0  0  0  0
    1.5866   -0.6982    0.0706 C   0  0  0  0  0  0  0  0  0  0  0  0
    2.9470   -0.9570   -0.1639 N   0  0  0  0  0  0  0  0  0  0  0  0
    3.7665   -0.0747    0.0633 N   0  0  0  0  0  0  0  0  0  0  0  0
    3.5895    1.1146    0.5039 C   0  0  0  0  0  0  0  0  0  0  0  0
    1.7449    1.0744    0.6831 S   0  0  0  0  0  0  0  0  0  0  0  0
   -4.4751    0.4464   -0.7592 H   0  0  0  0  0  0  0  0  0  0  0  0
   -0.7687    0.9165    0.9179 H   0  0  0  0  0  0  0  0  0  0  0  0
   -1.5774    1.6271   -1.2534 H   0  0  0  0  0  0  0  0  0  0  0  0
   -1.0093   -1.4924    1.2068 H   0  0  0  0  0  0  0  0  0  0  0  0
   -1.4122   -1.7156   -0.5441 H   0  0  0  0  0  0  0  0  0  0  0  0
    3.1627   -1.9401   -0.5354 H   0  0  0  0  0  0  0  0  0  0  0  0
    4.1932    1.9905    0.7514 H   0  0  0  0  0  0  0  0  0  0  0  0
  1  2  2  0
  2  3  1  0
  2  4  1  0
  4  5  1  0
  4  6  1  0
  6  7  1  0
  7  8  2  3
  8  9  1  0
  9 10  1  0
 10 11  2  0
 11 12  1  0
 12  8  1  0
  3 13  1  0
  4 14  1  1
  5 15  1  0
  6 16  1  0
  6 17  1  0
  9 18  1  0
 11 19  1  0
M  END
$$$$

     RDKit          3D

 19 19  0  0  0  0  0  0  0  0999 V2000
   -3.7647    0.4911    0.2199 O   0  0  0  0  0  0  0  0  0  0  0  0
   -2.7259   -0.0627   -0.1983 C   0  0  0  0  0  0  0  0  0  0  0  0
   -2.3535    0.0635   -1.5030 O   0  0  0  0  0  0  0  0  0  0  0  0
   -1.9068   -0.8558    0.7388 C   0  0  2  0  0  0  0  0  0  0  0  0
   -2.4564   -0.8624    2.0255 O   0  0  0  0  0  0  0  0  0  0  0  0
   -0.5583   -0.1703    0.8495 C   0  0  0  0  0  0  0  0  0  0  0  0
    0.1046   -0.1080   -0.4375 N   0  0  0  0  0  0  0  0  0  0  0  0
    1.3814   -0.0211   -0.5426 C   0  0  0  0  0  0  0  0  0  0  0  0
    2.2044    0.0488   -1.6047 N   0  0  0  0  0  0  0  0  0  0  0  0
    3.4550    0.1286   -1.3312 N   0  0  0  0  0  0  0  0  0  0  0  0
    4.0241    0.1527   -0.3361 C   0  0  0  0  0  0  0  0  0  0  0  0
    2.5446    0.0369    0.8704 S   0  0  0  0  0  0  0  0  0  0  0  0
   -2.7808    0.7045   -2.1688 H   0  0  0  0  0  0  0  0  0  0  0  0
   -1.7120   -1.8902    0.3747 H   0  0  0  0  0  0  0  0  0  0  0  0
   -1.7879   -1.0933    2.7003 H   0  0  0  0  0  0  0  0  0  0  0  0
    0.1268   -0.7456    1.5276 H   0  0  0  0  0  0  0  0  0  0  0  0
   -0.6204    0.8460    1.2563 H   0  0  0  0  0  0  0  0  0  0  0  0
    1.8097    0.0362   -2.5910 H   0  0  0  0  0  0  0  0  0  0  0  0
    5.0162    0.2123    0.1500 H   0  0  0  0  0  0  0  0  0  0  0  0
  1  2  2  0
  2  3  1  0
  2  4  1  0
  4  5  1  0
  4  6  1  0
  6  7  1  0
  7  8  2  3
  8  9  1  0
  9 10  1  0
 10 11  2  0
 11 12  1  0
 12  8  1  0
  3 13  1  0
  4 14  1  6
  5 15  1  0
  6 16  1  0
  6 17  1  0
  9 18  1  0
 11 19  1  0
M  END
$$$$

     RDKit          3D

 19 19  0  0  0  0  0  0  0  0999 V2000
   -2.9918    1.8102   -0.6631 O   0  0  0  0  0  0  0  0  0  0  0  0
   -2.9200    0.7418   -0.0247 C   0  0  0  0  0  0  0  0  0  0  0  0
   -3.8354    0.4249    0.9556 O   0  0  0  0  0  0  0  0  0  0  0  0
   -1.8275   -0.2212   -0.3173 C   0  0  2  0  0  0  0  0  0  0  0  0
   -1.9043   -1.3515    0.4869 O   0  0  0  0  0  0  0  0  0  0  0  0
   -0.4620    0.4122   -0.0267 C   0  0  0  0  0  0  0  0  0  0  0  0
    0.5318   -0.5734   -0.3678 N   0  0  0  0  0  0  0  0  0  0  0  0
    1.7216   -0.4142   -0.2365 C   0  0  0  0  0  0  0  0  0  0  0  0
    2.8637   -1.1579   -0.4718 N   0  0  0  0  0  0  0  0  0  0  0  0
    3.9828   -0.7179   -0.2313 N   0  0  0  0  0  0  0  0  0  0  0  0
    4.2857    0.4535    0.2579 C   0  0  0  0  0  0  0  0  0  0  0  0
    2.5707    1.1197    0.4296 S   0  0  0  0  0  0  0  0  0  0  0  0
   -4.6284    1.0176    1.1840 H   0  0  0  0  0  0  0  0  0  0  0  0
   -1.7957   -0.5149   -1.3848 H   0  0  0  0  0  0  0  0  0  0  0  0
   -2.7034   -1.9047    0.2925 H   0  0  0  0  0  0  0  0  0  0  0  0
   -0.3961    0.6527    1.0639 H   0  0  0  0  0  0  0  0  0  0  0  0
   -0.3467    1.3489   -0.6029 H   0  0  0  0  0  0  0  0  0  0  0  0
    2.6681   -2.1396   -0.8785 H   0  0  0  0  0  0  0  0  0  0  0  0
    5.1869    1.0139    0.5347 H   0  0  0  0  0  0  0  0  0  0  0  0
  1  2  2  0
  2  3  1  0
  2  4  1  0
  4  5  1  0
  4  6  1  0
  6  7  1  0
  7  8  2  3
  8  9  1  0
  9 10  1  0
 10 11  2  0
 11 12  1  0
 12  8  1  0
  3 13  1  0
  4 14  1  6
  5 15  1  0
  6 16  1  0
  6 17  1  0
  9 18  1  0
 11 19  1  0
M  END
$$$$

     RDKit          3D

 19 19  0  0  0  0  0  0  0  0999 V2000
    1.5711    0.8701    1.1637 O   0  0  0  0  0  0  0  0  0  0  0  0
    1.7414    0.6436   -0.0610 C   0  0  0  0  0  0  0  0  0  0  0  0
    1.7678    1.7285   -0.9190 O   0  0  0  0  0  0  0  0  0  0  0  0
    1.9049   -0.7504   -0.5357 C   0  0  2  0  0  0  0  0  0  0  0  0
    2.0786   -0.7118   -1.9201 O   0  0  0  0  0  0  0  0  0  0  0  0
    0.6308   -1.5272   -0.2417 C   0  0  0  0  0  0  0  0  0  0  0  0
   -0.4870   -0.8930   -0.8476 N   0  0  0  0  0  0  0  0  0  0  0  0
   -1.3491   -0.2836   -0.1948 C   0  0  0  0  0  0  0  0  0  0  0  0
   -1.5306   -0.0302    1.1068 N   0  0  0  0  0  0  0  0  0  0  0  0
   -2.5149    0.6304    1.5240 N   0  0  0  0  0  0  0  0  0  0  0  0
   -3.4417    1.1181    0.6660 C   0  0  0  0  0  0  0  0  0  0  0  0
   -2.7495    0.5173   -0.8950 S   0  0  0  0  0  0  0  0  0  0  0  0
    1.7123    2.6933   -0.6223 H   0  0  0  0  0  0  0  0  0  0  0  0
    2.7543   -1.1923   -0.0006 H   0  0  0  0  0  0  0  0  0  0  0  0
    1.7632    0.1241   -2.3298 H   0  0  0  0  0  0  0  0  0  0  0  0
    0.5339   -1.6806    0.8479 H   0  0  0  0  0  0  0  0  0  0  0  0
    0.7601   -2.5399   -0.7279 H   0  0  0  0  0  0  0  0  0  0  0  0
   -0.7675   -0.4355    1.7784 H   0  0  0  0  0  0  0  0  0  0  0  0
   -4.3784    1.7191    0.8058 H   0  0  0  0  0  0  0  0  0  0  0  0
  1  2  2  0
  2  3  1  0
  2  4  1  0
  4  5  1  0
  4  6  1  0
  6  7  1  0
  7  8  2  3
  8  9  1  0
  9 10  1  0
 10 11  2  0
 11 12  1  0
 12  8  1  0
  3 13  1  0
  4 14  1  1
  5 15  1  0
  6 16  1  0
  6 17  1  0
  9 18  1  0
 11 19  1  0
M  END
$$$$

     RDKit          3D

 19 19  0  0  0  0  0  0  0  0999 V2000
   -3.4811    0.8012    1.2470 O   0  0  0  0  0  0  0  0  0  0  0  0
   -2.9204    0.5142    0.1647 C   0  0  0  0  0  0  0  0  0  0  0  0
   -3.2555    1.2743   -0.9513 O   0  0  0  0  0  0  0  0  0  0  0  0
   -1.9328   -0.5866    0.0408 C   0  0  2  0  0  0  0  0  0  0  0  0
   -1.7553   -1.2017    1.2680 O   0  0  0  0  0  0  0  0  0  0  0  0
   -0.6341    0.0574   -0.4453 C   0  0  0  0  0  0  0  0  0  0  0  0
    0.4173   -0.9347   -0.5932 N   0  0  0  0  0  0  0  0  0  0  0  0
    1.6303   -0.5945   -0.3833 C   0  0  0  0  0  0  0  0  0  0  0  0
    2.7733   -1.2202   -0.4280 N   0  0  0  0  0  0  0  0  0  0  0  0
    3.8438   -0.5642   -0.1516 N   0  0  0  0  0  0  0  0  0  0  0  0
    3.9832    0.5455    0.1468 C   0  0  0  0  0  0  0  0  0  0  0  0
    2.1609    1.0832    0.1002 S   0  0  0  0  0  0  0  0  0  0  0  0
   -3.4807    2.2576   -0.8854 H   0  0  0  0  0  0  0  0  0  0  0  0
   -2.2780   -1.3120   -0.7016 H   0  0  0  0  0  0  0  0  0  0  0  0
   -1.4669   -0.5149    1.9200 H   0  0  0  0  0  0  0  0  0  0  0  0
   -0.3221    0.8689    0.2357 H   0  0  0  0  0  0  0  0  0  0  0  0
   -0.8193    0.4852   -1.4518 H   0  0  0  0  0  0  0  0  0  0  0  0
    2.8205   -2.2602   -0.6897 H   0  0  0  0  0  0  0  0  0  0  0  0
    4.7169    1.3015    0.4147 H   0  0  0  0  0  0  0  0  0  0  0  0
  1  2  2  0
  2  3  1  0
  2  4  1  0
  4  5  1  0
  4  6  1  0
  6  7  1  0
  7  8  2  3
  8  9  1  0
  9 10  1  0
 10 11  2  0
 11 12  1  0
 12  8  1  0
  3 13  1  0
  4 14  1  6
  5 15  1  0
  6 16  1  0
  6 17  1  0
  9 18  1  0
 11 19  1  0
M  END
$$$$
