
     RDKit          3D

 27 27  0  0  0  0  0  0  0  0999 V2000
    3.8478    0.5443    0.6497 C   0  0  0  0  0  0  0  0  0  0  0  0
    2.9880    0.0220   -0.3961 N   0  0  0  0  0  0  0  0  0  0  0  0
    1.5497    0.9212   -0.5945 S   0  0  0  0  0  6  0  0  0  0  0  0
    1.8582    2.3773   -0.3020 O   0  0  0  0  0  0  0  0  0  0  0  0
    1.1059    0.8016   -2.0398 O   0  0  0  0  0  0  0  0  0  0  0  0
    0.2640    0.3458    0.3866 N   0  0  0  0  0  0  0  0  0  0  0  0
   -0.4857   -0.6484   -0.3208 C   0  0  1  0  0  0  0  0  0  0  0  0
   -0.5212   -1.9359    0.5180 C   0  0  0  0  0  0  0  0  0  0  0  0
   -1.8245   -1.3798    1.1101 C   0  0  0  0  0  0  0  0  0  0  0  0
   -1.9703   -0.6077   -0.1833 C   0  0  1  0  0  0  0  0  0  0  0  0
   -2.6113    0.7384   -0.0626 C   0  0  0  0  0  0  0  0  0  0  0  0
   -2.1789    1.5032    1.0654 N   0  0  0  0  0  0  0  0  0  0  0  0
    4.7426   -0.1210    0.6765 H   0  0  0  0  0  0  0  0  0  0  0  0
    3.3349    0.4195    1.6316 H   0  0  0  0  0  0  0  0  0  0  0  0
    4.0935    1.6004    0.5131 H   0  0  0  0  0  0  0  0  0  0  0  0
    2.8312   -0.9866   -0.1886 H   0  0  0  0  0  0  0  0  0  0  0  0
    0.6759    0.0011    1.2895 H   0  0  0  0  0  0  0  0  0  0  0  0
   -0.0918   -0.8403   -1.3366 H   0  0  0  0  0  0  0  0  0  0  0  0
    0.2973   -2.0262    1.2311 H   0  0  0  0  0  0  0  0  0  0  0  0
   -0.7029   -2.8002   -0.1552 H   0  0  0  0  0  0  0  0  0  0  0  0
   -1.5567   -0.7639    1.9902 H   0  0  0  0  0  0  0  0  0  0  0  0
   -2.6029   -2.1321    1.2591 H   0  0  0  0  0  0  0  0  0  0  0  0
   -2.4592   -1.2050   -0.9616 H   0  0  0  0  0  0  0  0  0  0  0  0
   -3.7089    0.5775    0.0275 H   0  0  0  0  0  0  0  0  0  0  0  0
   -2.4650    1.2669   -1.0312 H   0  0  0  0  0  0  0  0  0  0  0  0
   -1.4272    2.1874    0.7515 H   0  0  0  0  0  0  0  0  0  0  0  0
   -2.9826    2.1406    1.3476 H   0  0  0  0  0  0  0  0  0  0  0  0
  1  2  1  0
  2  3  1  0
  3  4  2  0
  3  5  2  0
  3  6  1  0
  6  7  1  0
  7  8  1  0
  8  9  1  0
  9 10  1  0
 10 11  1  0
 11 12  1  0
 10  7  1  0
  1 13  1  0
  1 14  1  0
  1 15  1  0
  2 16  1  0
  6 17  1  0
  7 18  1  6
  8 19  1  0
  8 20  1  0
  9 21  1  0
  9 22  1  0
 10 23  1  6
 11 24  1  0
 11 25  1  0
 12 26  1  0
 12 27  1  0
M  END
$$$$

     RDKit          3D

 27 27  0  0  0  0  0  0  0  0999 V2000
    3.7987    0.4600    0.3445 C   0  0  0  0  0  0  0  0  0  0  0  0
    2.9534   -0.1991   -0.6574 N   0  0  0  0  0  0  0  0  0  0  0  0
    1.5136    0.7101   -0.9439 S   0  0  0  0  0  6  0  0  0  0  0  0
    1.7512    2.1794   -0.9332 O   0  0  0  0  0  0  0  0  0  0  0  0
    1.0642    0.3502   -2.3520 O   0  0  0  0  0  0  0  0  0  0  0  0
    0.2351    0.2348    0.1126 N   0  0  0  0  0  0  0  0  0  0  0  0
   -0.5716   -0.8308   -0.4455 C   0  0  1  0  0  0  0  0  0  0  0  0
   -0.7100   -1.9491    0.5726 C   0  0  0  0  0  0  0  0  0  0  0  0
   -1.9067   -1.1874    1.1123 C   0  0  0  0  0  0  0  0  0  0  0  0
   -2.0617   -0.6270   -0.2914 C   0  0  1  0  0  0  0  0  0  0  0  0
   -2.5282    0.7988   -0.3520 C   0  0  0  0  0  0  0  0  0  0  0  0
   -1.9383    1.6178    0.6838 N   0  0  0  0  0  0  0  0  0  0  0  0
    3.2120    1.0638    1.0506 H   0  0  0  0  0  0  0  0  0  0  0  0
    4.5654    1.0962   -0.1847 H   0  0  0  0  0  0  0  0  0  0  0  0
    4.3698   -0.3583    0.8346 H   0  0  0  0  0  0  0  0  0  0  0  0
    3.4955   -0.2128   -1.5478 H   0  0  0  0  0  0  0  0  0  0  0  0
    0.6555   -0.0223    1.0431 H   0  0  0  0  0  0  0  0  0  0  0  0
   -0.2197   -1.1336   -1.4302 H   0  0  0  0  0  0  0  0  0  0  0  0
    0.1373   -2.0552    1.2670 H   0  0  0  0  0  0  0  0  0  0  0  0
   -1.0561   -2.8744    0.0690 H   0  0  0  0  0  0  0  0  0  0  0  0
   -2.7606   -1.8245    1.4098 H   0  0  0  0  0  0  0  0  0  0  0  0
   -1.5858   -0.4326    1.8473 H   0  0  0  0  0  0  0  0  0  0  0  0
   -2.6419   -1.2972   -0.9217 H   0  0  0  0  0  0  0  0  0  0  0  0
   -2.3609    1.1874   -1.3690 H   0  0  0  0  0  0  0  0  0  0  0  0
   -3.6250    0.7914   -0.1829 H   0  0  0  0  0  0  0  0  0  0  0  0
   -1.1481    2.1887    0.2625 H   0  0  0  0  0  0  0  0  0  0  0  0
   -2.6369    2.3256    1.0024 H   0  0  0  0  0  0  0  0  0  0  0  0
  1  2  1  0
  2  3  1  0
  3  4  2  0
  3  5  2  0
  3  6  1  0
  6  7  1  0
  7  8  1  0
  8  9  1  0
  9 10  1  0
 10 11  1  0
 11 12  1  0
 10  7  1  0
  1 13  1  0
  1 14  1  0
  1 15  1  0
  2 16  1  0
  6 17  1  0
  7 18  1  6
  8 19  1  0
  8 20  1  0
  9 21  1  0
  9 22  1  0
 10 23  1  6
 11 24  1  0
 11 25  1  0
 12 26  1  0
 12 27  1  0
M  END
$$$$

     RDKit          3D

 27 27  0  0  0  0  0  0  0  0999 V2000
    3.6054   -0.3468    0.9657 C   0  0  0  0  0  0  0  0  0  0  0  0
    3.2837   -0.4270   -0.4632 N   0  0  0  0  0  0  0  0  0  0  0  0
    1.7427   -1.1579   -0.7111 S   0  0  0  0  0  6  0  0  0  0  0  0
    1.5105   -2.1523    0.3952 O   0  0  0  0  0  0  0  0  0  0  0  0
    1.7355   -1.9206   -2.0225 O   0  0  0  0  0  0  0  0  0  0  0  0
    0.4680   -0.0410   -0.7340 N   0  0  0  0  0  0  0  0  0  0  0  0
   -0.1291    0.2228    0.5351 C   0  0  1  0  0  0  0  0  0  0  0  0
   -0.1929    1.7161    0.8605 C   0  0  0  0  0  0  0  0  0  0  0  0
   -1.5803    1.6914    0.2029 C   0  0  0  0  0  0  0  0  0  0  0  0
   -1.6205    0.2222    0.6184 C   0  0  1  0  0  0  0  0  0  0  0  0
   -2.3525   -0.6681   -0.3467 C   0  0  0  0  0  0  0  0  0  0  0  0
   -3.7767   -0.5192   -0.0973 N   0  0  0  0  0  0  0  0  0  0  0  0
    2.9741   -1.0716    1.4882 H   0  0  0  0  0  0  0  0  0  0  0  0
    3.2498    0.6776    1.2787 H   0  0  0  0  0  0  0  0  0  0  0  0
    4.6795   -0.4307    1.1550 H   0  0  0  0  0  0  0  0  0  0  0  0
    4.0131   -1.0907   -0.8586 H   0  0  0  0  0  0  0  0  0  0  0  0
   -0.1634   -0.0840   -1.5360 H   0  0  0  0  0  0  0  0  0  0  0  0
    0.3687   -0.3746    1.3405 H   0  0  0  0  0  0  0  0  0  0  0  0
   -0.2624    1.9149    1.9651 H   0  0  0  0  0  0  0  0  0  0  0  0
    0.5166    2.3335    0.3127 H   0  0  0  0  0  0  0  0  0  0  0  0
   -1.4707    1.8296   -0.8888 H   0  0  0  0  0  0  0  0  0  0  0  0
   -2.3096    2.3377    0.7062 H   0  0  0  0  0  0  0  0  0  0  0  0
   -1.9551    0.1681    1.6764 H   0  0  0  0  0  0  0  0  0  0  0  0
   -2.1899   -0.2368   -1.3768 H   0  0  0  0  0  0  0  0  0  0  0  0
   -2.0640   -1.7143   -0.2864 H   0  0  0  0  0  0  0  0  0  0  0  0
   -4.1324   -1.2769    0.5243 H   0  0  0  0  0  0  0  0  0  0  0  0
   -3.9481    0.3984    0.3739 H   0  0  0  0  0  0  0  0  0  0  0  0
  1  2  1  0
  2  3  1  0
  3  4  2  0
  3  5  2  0
  3  6  1  0
  6  7  1  0
  7  8  1  0
  8  9  1  0
  9 10  1  0
 10 11  1  0
 11 12  1  0
 10  7  1  0
  1 13  1  0
  1 14  1  0
  1 15  1  0
  2 16  1  0
  6 17  1  0
  7 18  1  1
  8 19  1  0
  8 20  1  0
  9 21  1  0
  9 22  1  0
 10 23  1  1
 11 24  1  0
 11 25  1  0
 12 26  1  0
 12 27  1  0
M  END
$$$$

     RDKit          3D

 27 27  0  0  0  0  0  0  0  0999 V2000
    3.3811    0.0653    1.3907 C   0  0  0  0  0  0  0  0  0  0  0  0
    2.5469    1.0311    0.6632 N   0  0  0  0  0  0  0  0  0  0  0  0
    2.0405    0.2991   -0.8155 S   0  0  0  0  0  6  0  0  0  0  0  0
    3.1548   -0.6283   -1.2468 O   0  0  0  0  0  0  0  0  0  0  0  0
    1.8951    1.3682   -1.8478 O   0  0  0  0  0  0  0  0  0  0  0  0
    0.5529   -0.5489   -0.6440 N   0  0  0  0  0  0  0  0  0  0  0  0
   -0.5370    0.3265   -0.9169 C   0  0  1  0  0  0  0  0  0  0  0  0
   -1.4835   -0.3309   -1.9294 C   0  0  0  0  0  0  0  0  0  0  0  0
   -2.2165   -0.9125   -0.7114 C   0  0  0  0  0  0  0  0  0  0  0  0
   -1.6879    0.2939    0.0585 C   0  0  1  0  0  0  0  0  0  0  0  0
   -1.3239    0.0050    1.4856 C   0  0  0  0  0  0  0  0  0  0  0  0
   -2.5489    0.0151    2.2646 N   0  0  0  0  0  0  0  0  0  0  0  0
    4.2288   -0.2337    0.7621 H   0  0  0  0  0  0  0  0  0  0  0  0
    2.8070   -0.8575    1.6184 H   0  0  0  0  0  0  0  0  0  0  0  0
    3.7690    0.4794    2.3277 H   0  0  0  0  0  0  0  0  0  0  0  0
    3.1892    1.8420    0.4485 H   0  0  0  0  0  0  0  0  0  0  0  0
    0.6020   -1.3787   -1.2737 H   0  0  0  0  0  0  0  0  0  0  0  0
   -0.2228    1.3346   -1.1739 H   0  0  0  0  0  0  0  0  0  0  0  0
   -2.0699    0.4439   -2.4355 H   0  0  0  0  0  0  0  0  0  0  0  0
   -1.0305   -1.1166   -2.5324 H   0  0  0  0  0  0  0  0  0  0  0  0
   -1.7024   -1.8391   -0.3756 H   0  0  0  0  0  0  0  0  0  0  0  0
   -3.2994   -0.9669   -0.8117 H   0  0  0  0  0  0  0  0  0  0  0  0
   -2.3522    1.1488   -0.0829 H   0  0  0  0  0  0  0  0  0  0  0  0
   -0.5832    0.6949    1.8908 H   0  0  0  0  0  0  0  0  0  0  0  0
   -0.9326   -1.0453    1.5411 H   0  0  0  0  0  0  0  0  0  0  0  0
   -2.8705    0.9937    2.4887 H   0  0  0  0  0  0  0  0  0  0  0  0
   -3.3061   -0.4831    1.7164 H   0  0  0  0  0  0  0  0  0  0  0  0
  1  2  1  0
  2  3  1  0
  3  4  2  0
  3  5  2  0
  3  6  1  0
  6  7  1  0
  7  8  1  0
  8  9  1  0
  9 10  1  0
 10 11  1  0
 11 12  1  0
 10  7  1  0
  1 13  1  0
  1 14  1  0
  1 15  1  0
  2 16  1  0
  6 17  1  0
  7 18  1  6
  8 19  1  0
  8 20  1  0
  9 21  1  0
  9 22  1  0
 10 23  1  1
 11 24  1  0
 11 25  1  0
 12 26  1  0
 12 27  1  0
M  END
$$$$

     RDKit          3D

 27 27  0  0  0  0  0  0  0  0999 V2000
    3.5978    0.9015    0.3812 C   0  0  0  0  0  0  0  0  0  0  0  0
    2.8371    0.1968   -0.6190 N   0  0  0  0  0  0  0  0  0  0  0  0
    1.9256   -1.1020    0.0277 S   0  0  0  0  0  6  0  0  0  0  0  0
    2.6735   -1.6454    1.2133 O   0  0  0  0  0  0  0  0  0  0  0  0
    1.8224   -2.1595   -1.0447 O   0  0  0  0  0  0  0  0  0  0  0  0
    0.3464   -0.6181    0.5181 N   0  0  0  0  0  0  0  0  0  0  0  0
   -0.5391   -0.7743   -0.5812 C   0  0  1  0  0  0  0  0  0  0  0  0
   -1.7439   -1.6021   -0.1653 C   0  0  0  0  0  0  0  0  0  0  0  0
   -2.6127   -0.5696   -0.8381 C   0  0  0  0  0  0  0  0  0  0  0  0
   -1.4420    0.3715   -0.9167 C   0  0  1  0  0  0  0  0  0  0  0  0
   -1.4662    1.5021    0.0807 C   0  0  0  0  0  0  0  0  0  0  0  0
   -1.9107    1.0019    1.3775 N   0  0  0  0  0  0  0  0  0  0  0  0
    4.6246    0.4596    0.3788 H   0  0  0  0  0  0  0  0  0  0  0  0
    3.6261    1.9874    0.2211 H   0  0  0  0  0  0  0  0  0  0  0  0
    3.1633    0.7312    1.3892 H   0  0  0  0  0  0  0  0  0  0  0  0
    3.3805   -0.0445   -1.4651 H   0  0  0  0  0  0  0  0  0  0  0  0
    0.3293    0.2922    0.9943 H   0  0  0  0  0  0  0  0  0  0  0  0
   -0.0301   -1.1603   -1.4789 H   0  0  0  0  0  0  0  0  0  0  0  0
   -1.7206   -2.5926   -0.6622 H   0  0  0  0  0  0  0  0  0  0  0  0
   -1.8987   -1.7033    0.9097 H   0  0  0  0  0  0  0  0  0  0  0  0
   -2.9751   -0.9402   -1.8223 H   0  0  0  0  0  0  0  0  0  0  0  0
   -3.4376   -0.1838   -0.2238 H   0  0  0  0  0  0  0  0  0  0  0  0
   -1.3124    0.7506   -1.9417 H   0  0  0  0  0  0  0  0  0  0  0  0
   -2.1971    2.2758   -0.2303 H   0  0  0  0  0  0  0  0  0  0  0  0
   -0.4993    1.9851    0.2130 H   0  0  0  0  0  0  0  0  0  0  0  0
   -1.5862    1.6316    2.1214 H   0  0  0  0  0  0  0  0  0  0  0  0
   -2.9549    1.0083    1.3589 H   0  0  0  0  0  0  0  0  0  0  0  0
  1  2  1  0
  2  3  1  0
  3  4  2  0
  3  5  2  0
  3  6  1  0
  6  7  1  0
  7  8  1  0
  8  9  1  0
  9 10  1  0
 10 11  1  0
 11 12  1  0
 10  7  1  0
  1 13  1  0
  1 14  1  0
  1 15  1  0
  2 16  1  0
  6 17  1  0
  7 18  1  6
  8 19  1  0
  8 20  1  0
  9 21  1  0
  9 22  1  0
 10 23  1  6
 11 24  1  0
 11 25  1  0
 12 26  1  0
 12 27  1  0
M  END
$$$$

     RDKit          3D

 27 27  0  0  0  0  0  0  0  0999 V2000
    2.9337   -1.3506   -1.2721 C   0  0  0  0  0  0  0  0  0  0  0  0
    2.5129   -0.8323    0.0167 N   0  0  0  0  0  0  0  0  0  0  0  0
    2.1013    0.8294   -0.0465 S   0  0  0  0  0  6  0  0  0  0  0  0
    2.8693    1.4377   -1.2077 O   0  0  0  0  0  0  0  0  0  0  0  0
    2.4828    1.5608    1.2050 O   0  0  0  0  0  0  0  0  0  0  0  0
    0.4348    0.9798   -0.4094 N   0  0  0  0  0  0  0  0  0  0  0  0
   -0.4023    1.0088    0.7554 C   0  0  1  0  0  0  0  0  0  0  0  0
   -1.5074    2.0145    0.7689 C   0  0  0  0  0  0  0  0  0  0  0  0
   -2.3689    0.9986    0.0463 C   0  0  0  0  0  0  0  0  0  0  0  0
   -1.4612   -0.0713    0.6697 C   0  0  1  0  0  0  0  0  0  0  0  0
   -1.1384   -1.2031   -0.2744 C   0  0  0  0  0  0  0  0  0  0  0  0
   -2.2417   -2.1394   -0.2377 N   0  0  0  0  0  0  0  0  0  0  0  0
    2.2141   -2.1139   -1.6692 H   0  0  0  0  0  0  0  0  0  0  0  0
    3.0223   -0.5068   -1.9976 H   0  0  0  0  0  0  0  0  0  0  0  0
    3.9653   -1.8017   -1.2172 H   0  0  0  0  0  0  0  0  0  0  0  0
    3.2959   -0.9372    0.7042 H   0  0  0  0  0  0  0  0  0  0  0  0
    0.2066    1.6673   -1.1286 H   0  0  0  0  0  0  0  0  0  0  0  0
    0.1984    0.9272    1.6792 H   0  0  0  0  0  0  0  0  0  0  0  0
   -1.9023    2.1439    1.8032 H   0  0  0  0  0  0  0  0  0  0  0  0
   -1.3258    2.9512    0.2068 H   0  0  0  0  0  0  0  0  0  0  0  0
   -3.4171    0.9483    0.4048 H   0  0  0  0  0  0  0  0  0  0  0  0
   -2.3440    1.0359   -1.0478 H   0  0  0  0  0  0  0  0  0  0  0  0
   -1.8132   -0.3761    1.6628 H   0  0  0  0  0  0  0  0  0  0  0  0
   -1.0259   -0.8603   -1.3071 H   0  0  0  0  0  0  0  0  0  0  0  0
   -0.2129   -1.7115    0.0765 H   0  0  0  0  0  0  0  0  0  0  0  0
   -3.0954   -1.6661    0.1324 H   0  0  0  0  0  0  0  0  0  0  0  0
   -1.9810   -2.9330    0.3873 H   0  0  0  0  0  0  0  0  0  0  0  0
  1  2  1  0
  2  3  1  0
  3  4  2  0
  3  5  2  0
  3  6  1  0
  6  7  1  0
  7  8  1  0
  8  9  1  0
  9 10  1  0
 10 11  1  0
 11 12  1  0
 10  7  1  0
  1 13  1  0
  1 14  1  0
  1 15  1  0
  2 16  1  0
  6 17  1  0
  7 18  1  1
  8 19  1  0
  8 20  1  0
  9 21  1  0
  9 22  1  0
 10 23  1  1
 11 24  1  0
 11 25  1  0
 12 26  1  0
 12 27  1  0
M  END
$$$$

     RDKit          3D

 27 27  0  0  0  0  0  0  0  0999 V2000
    3.3953   -0.3358    0.1182 C   0  0  0  0  0  0  0  0  0  0  0  0
    3.0187    1.0384    0.4038 N   0  0  0  0  0  0  0  0  0  0  0  0
    1.6189    1.4024   -0.5265 S   0  0  0  0  0  6  0  0  0  0  0  0
    1.6428    0.5415   -1.7576 O   0  0  0  0  0  0  0  0  0  0  0  0
    1.6182    2.8291   -0.9902 O   0  0  0  0  0  0  0  0  0  0  0  0
    0.1655    1.0270    0.3422 N   0  0  0  0  0  0  0  0  0  0  0  0
   -0.1873   -0.3172    0.0510 C   0  0  1  0  0  0  0  0  0  0  0  0
   -0.4174   -1.2226    1.2518 C   0  0  0  0  0  0  0  0  0  0  0  0
   -1.4628   -1.9253    0.3905 C   0  0  0  0  0  0  0  0  0  0  0  0
   -1.6026   -0.5932   -0.3499 C   0  0  1  0  0  0  0  0  0  0  0  0
   -2.6529    0.2388    0.3389 C   0  0  0  0  0  0  0  0  0  0  0  0
   -2.4991    1.6485    0.1160 N   0  0  0  0  0  0  0  0  0  0  0  0
    3.5132   -0.4737   -0.9744 H   0  0  0  0  0  0  0  0  0  0  0  0
    4.3661   -0.5676    0.5857 H   0  0  0  0  0  0  0  0  0  0  0  0
    2.6267   -1.0413    0.4995 H   0  0  0  0  0  0  0  0  0  0  0  0
    3.8035    1.6569    0.0930 H   0  0  0  0  0  0  0  0  0  0  0  0
    0.3779    1.1758    1.3626 H   0  0  0  0  0  0  0  0  0  0  0  0
    0.5057   -0.8562   -0.6510 H   0  0  0  0  0  0  0  0  0  0  0  0
   -0.7967   -0.7360    2.1511 H   0  0  0  0  0  0  0  0  0  0  0  0
    0.4495   -1.8708    1.4952 H   0  0  0  0  0  0  0  0  0  0  0  0
   -2.3683   -2.2441    0.9239 H   0  0  0  0  0  0  0  0  0  0  0  0
   -0.9700   -2.7020   -0.2452 H   0  0  0  0  0  0  0  0  0  0  0  0
   -1.8075   -0.6875   -1.4237 H   0  0  0  0  0  0  0  0  0  0  0  0
   -2.7157    0.0434    1.4265 H   0  0  0  0  0  0  0  0  0  0  0  0
   -3.6412   -0.0638   -0.0826 H   0  0  0  0  0  0  0  0  0  0  0  0
   -2.9711    1.8837   -0.7865 H   0  0  0  0  0  0  0  0  0  0  0  0
   -3.0093    2.1517    0.8714 H   0  0  0  0  0  0  0  0  0  0  0  0
  1  2  1  0
  2  3  1  0
  3  4  2  0
  3  5  2  0
  3  6  1  0
  6  7  1  0
  7  8  1  0
  8  9  1  0
  9 10  1  0
 10 11  1  0
 11 12  1  0
 10  7  1  0
  1 13  1  0
  1 14  1  0
  1 15  1  0
  2 16  1  0
  6 17  1  0
  7 18  1  6
  8 19  1  0
  8 20  1  0
  9 21  1  0
  9 22  1  0
 10 23  1  6
 11 24  1  0
 11 25  1  0
 12 26  1  0
 12 27  1  0
M  END
$$$$

     RDKit          3D

 27 27  0  0  0  0  0  0  0  0999 V2000
    3.2443   -0.1152    1.7835 C   0  0  0  0  0  0  0  0  0  0  0  0
    2.5049    0.9288    1.0884 N   0  0  0  0  0  0  0  0  0  0  0  0
    2.1334    0.3361   -0.5050 S   0  0  0  0  0  6  0  0  0  0  0  0
    2.1162    1.5367   -1.4136 O   0  0  0  0  0  0  0  0  0  0  0  0
    3.2495   -0.5581   -0.9500 O   0  0  0  0  0  0  0  0  0  0  0  0
    0.6155   -0.4871   -0.5105 N   0  0  0  0  0  0  0  0  0  0  0  0
   -0.4188    0.4534   -0.7969 C   0  0  1  0  0  0  0  0  0  0  0  0
   -1.2581   -0.0593   -1.9758 C   0  0  0  0  0  0  0  0  0  0  0  0
   -2.1491   -0.7354   -0.9248 C   0  0  0  0  0  0  0  0  0  0  0  0
   -1.6687    0.3388    0.0422 C   0  0  1  0  0  0  0  0  0  0  0  0
   -1.4722   -0.1682    1.4395 C   0  0  0  0  0  0  0  0  0  0  0  0
   -2.7811   -0.2050    2.0762 N   0  0  0  0  0  0  0  0  0  0  0  0
    2.7672   -0.4191    2.7172 H   0  0  0  0  0  0  0  0  0  0  0  0
    4.2856    0.2215    2.0397 H   0  0  0  0  0  0  0  0  0  0  0  0
    3.3812   -1.0114    1.1441 H   0  0  0  0  0  0  0  0  0  0  0  0
    3.1416    1.7599    1.0209 H   0  0  0  0  0  0  0  0  0  0  0  0
    0.6872   -1.2482   -1.2150 H   0  0  0  0  0  0  0  0  0  0  0  0
   -0.0568    1.4733   -0.9506 H   0  0  0  0  0  0  0  0  0  0  0  0
   -1.8165    0.7767   -2.4140 H   0  0  0  0  0  0  0  0  0  0  0  0
   -0.7394   -0.7440   -2.6444 H   0  0  0  0  0  0  0  0  0  0  0  0
   -1.7891   -1.7373   -0.6423 H   0  0  0  0  0  0  0  0  0  0  0  0
   -3.2196   -0.6350   -1.0967 H   0  0  0  0  0  0  0  0  0  0  0  0
   -2.2725    1.2449    0.0145 H   0  0  0  0  0  0  0  0  0  0  0  0
   -1.0819   -1.2085    1.4638 H   0  0  0  0  0  0  0  0  0  0  0  0
   -0.8056    0.4445    2.0434 H   0  0  0  0  0  0  0  0  0  0  0  0
   -3.2539    0.7235    1.8648 H   0  0  0  0  0  0  0  0  0  0  0  0
   -3.3434   -0.9062    1.5098 H   0  0  0  0  0  0  0  0  0  0  0  0
  1  2  1  0
  2  3  1  0
  3  4  2  0
  3  5  2  0
  3  6  1  0
  6  7  1  0
  7  8  1  0
  8  9  1  0
  9 10  1  0
 10 11  1  0
 11 12  1  0
 10  7  1  0
  1 13  1  0
  1 14  1  0
  1 15  1  0
  2 16  1  0
  6 17  1  0
  7 18  1  6
  8 19  1  0
  8 20  1  0
  9 21  1  0
  9 22  1  0
 10 23  1  1
 11 24  1  0
 11 25  1  0
 12 26  1  0
 12 27  1  0
M  END
$$$$
