
     RDKit          3D

 22 21  0  0  0  0  0  0  0  0999 V2000
   -3.5046    0.5257    0.4544 N   0  0  0  0  0  0  0  0  0  0  0  0
   -2.5768   -0.4748   -0.0834 C   0  0  0  0  0  0  0  0  0  0  0  0
   -1.1800   -0.0540    0.3331 C   0  0  1  0  0  0  0  0  0  0  0  0
   -1.1480   -0.0228    1.7027 O   0  0  0  0  0  0  0  0  0  0  0  0
   -0.1509   -0.9770   -0.2721 C   0  0  0  0  0  0  0  0  0  0  0  0
    1.1980   -0.6302    0.0618 N   0  0  0  0  0  0  0  0  0  0  0  0
    1.7970    0.6146   -0.2637 C   0  0  0  0  0  0  0  0  0  0  0  0
    1.1184    1.4617   -0.8757 O   0  0  0  0  0  0  0  0  0  0  0  0
    3.2089    0.9400    0.1026 C   0  0  0  0  0  0  0  0  0  0  0  0
    3.7931   -0.1303    0.7778 O   0  0  0  0  0  0  0  0  0  0  0  0
   -3.9224    0.1602    1.3549 H   0  0  0  0  0  0  0  0  0  0  0  0
   -3.0022    1.4031    0.6938 H   0  0  0  0  0  0  0  0  0  0  0  0
   -2.8074   -1.4755    0.3366 H   0  0  0  0  0  0  0  0  0  0  0  0
   -2.6799   -0.5268   -1.1870 H   0  0  0  0  0  0  0  0  0  0  0  0
   -1.0293    0.9598   -0.1168 H   0  0  0  0  0  0  0  0  0  0  0  0
   -1.7412   -0.6938    2.1338 H   0  0  0  0  0  0  0  0  0  0  0  0
   -0.3808   -1.9947    0.1075 H   0  0  0  0  0  0  0  0  0  0  0  0
   -0.3055   -1.0395   -1.3781 H   0  0  0  0  0  0  0  0  0  0  0  0
    1.8026   -1.3072    0.5730 H   0  0  0  0  0  0  0  0  0  0  0  0
    3.1604    1.7828    0.8240 H   0  0  0  0  0  0  0  0  0  0  0  0
    3.8052    1.2579   -0.7694 H   0  0  0  0  0  0  0  0  0  0  0  0
    4.5455    0.2207    1.3198 H   0  0  0  0  0  0  0  0  0  0  0  0
  1  2  1  0
  2  3  1  0
  3  4  1  0
  3  5  1  0
  5  6  1  0
  6  7  1  0
  7  8  2  0
  7  9  1  0
  9 10  1  0
  1 11  1  0
  1 12  1  0
  2 13  1  0
  2 14  1  0
  3 15  1  6
  4 16  1  0
  5 17  1  0
  5 18  1  0
  6 19  1  0
  9 20  1  0
  9 21  1  0
 10 22  1  0
M  END
$$$$

     RDKit          3D

 22 21  0  0  0  0  0  0  0  0999 V2000
   -2.8511    1.1905    0.2761 N   0  0  0  0  0  0  0  0  0  0  0  0
   -2.7756   -0.0836   -0.4083 C   0  0  0  0  0  0  0  0  0  0  0  0
   -1.4473   -0.7209   -0.0498 C   0  0  1  0  0  0  0  0  0  0  0  0
   -1.2870   -1.9580   -0.6672 O   0  0  0  0  0  0  0  0  0  0  0  0
   -0.3448    0.2275   -0.4555 C   0  0  0  0  0  0  0  0  0  0  0  0
    0.9524   -0.3210   -0.0675 N   0  0  0  0  0  0  0  0  0  0  0  0
    2.1168    0.4052   -0.3527 C   0  0  0  0  0  0  0  0  0  0  0  0
    2.0352    1.5296   -0.9439 O   0  0  0  0  0  0  0  0  0  0  0  0
    3.4627   -0.1321    0.0334 C   0  0  0  0  0  0  0  0  0  0  0  0
    4.4745    0.7459   -0.3431 O   0  0  0  0  0  0  0  0  0  0  0  0
   -3.6636    1.7645   -0.0573 H   0  0  0  0  0  0  0  0  0  0  0  0
   -2.9874    0.9965    1.2813 H   0  0  0  0  0  0  0  0  0  0  0  0
   -2.8443    0.0876   -1.4849 H   0  0  0  0  0  0  0  0  0  0  0  0
   -3.6170   -0.7079   -0.0017 H   0  0  0  0  0  0  0  0  0  0  0  0
   -1.3723   -0.8556    1.0460 H   0  0  0  0  0  0  0  0  0  0  0  0
   -1.7081   -2.6651   -0.1068 H   0  0  0  0  0  0  0  0  0  0  0  0
   -0.4016    0.4386   -1.5262 H   0  0  0  0  0  0  0  0  0  0  0  0
   -0.4890    1.1873    0.0825 H   0  0  0  0  0  0  0  0  0  0  0  0
    1.0364   -1.2382    0.4162 H   0  0  0  0  0  0  0  0  0  0  0  0
    3.5362   -0.2796    1.1226 H   0  0  0  0  0  0  0  0  0  0  0  0
    3.6587   -1.0859   -0.5221 H   0  0  0  0  0  0  0  0  0  0  0  0
    4.5163    1.4746    0.3168 H   0  0  0  0  0  0  0  0  0  0  0  0
  1  2  1  0
  2  3  1  0
  3  4  1  0
  3  5  1  0
  5  6  1  0
  6  7  1  0
  7  8  2  0
  7  9  1  0
  9 10  1  0
  1 11  1  0
  1 12  1  0
  2 13  1  0
  2 14  1  0
  3 15  1  1
  4 16  1  0
  5 17  1  0
  5 18  1  0
  6 19  1  0
  9 20  1  0
  9 21  1  0
 10 22  1  0
M  END
$$$$

     RDKit          3D

 22 21  0  0  0  0  0  0  0  0999 V2000
   -2.9364    1.5052    0.2433 N   0  0  0  0  0  0  0  0  0  0  0  0
   -2.6045    0.3849   -0.5661 C   0  0  0  0  0  0  0  0  0  0  0  0
   -1.3386   -0.3360   -0.0990 C   0  0  1  0  0  0  0  0  0  0  0  0
   -1.1599   -1.3843   -0.9803 O   0  0  0  0  0  0  0  0  0  0  0  0
   -0.2570    0.6863   -0.0751 C   0  0  0  0  0  0  0  0  0  0  0  0
    1.0457    0.2648    0.2780 N   0  0  0  0  0  0  0  0  0  0  0  0
    1.8227   -0.6830   -0.4302 C   0  0  0  0  0  0  0  0  0  0  0  0
    1.3359   -1.2006   -1.4629 O   0  0  0  0  0  0  0  0  0  0  0  0
    3.2052   -1.0658    0.0415 C   0  0  0  0  0  0  0  0  0  0  0  0
    3.5232   -0.3624    1.2016 O   0  0  0  0  0  0  0  0  0  0  0  0
   -3.2911    1.3054    1.1789 H   0  0  0  0  0  0  0  0  0  0  0  0
   -2.3654    2.3445    0.1245 H   0  0  0  0  0  0  0  0  0  0  0  0
   -3.4549   -0.2909   -0.6433 H   0  0  0  0  0  0  0  0  0  0  0  0
   -2.3646    0.7591   -1.5899 H   0  0  0  0  0  0  0  0  0  0  0  0
   -1.5783   -0.7225    0.9236 H   0  0  0  0  0  0  0  0  0  0  0  0
   -1.2826   -2.2706   -0.6074 H   0  0  0  0  0  0  0  0  0  0  0  0
   -0.3036    1.2258   -1.0532 H   0  0  0  0  0  0  0  0  0  0  0  0
   -0.6040    1.4701    0.6662 H   0  0  0  0  0  0  0  0  0  0  0  0
    1.4987    0.6861    1.1502 H   0  0  0  0  0  0  0  0  0  0  0  0
    3.8922   -0.7132   -0.7547 H   0  0  0  0  0  0  0  0  0  0  0  0
    3.2817   -2.1297    0.2703 H   0  0  0  0  0  0  0  0  0  0  0  0
    3.9356    0.5267    0.9949 H   0  0  0  0  0  0  0  0  0  0  0  0
  1  2  1  0
  2  3  1  0
  3  4  1  0
  3  5  1  0
  5  6  1  0
  6  7  1  0
  7  8  2  0
  7  9  1  0
  9 10  1  0
  1 11  1  0
  1 12  1  0
  2 13  1  0
  2 14  1  0
  3 15  1  1
  4 16  1  0
  5 17  1  0
  5 18  1  0
  6 19  1  0
  9 20  1  0
  9 21  1  0
 10 22  1  0
M  END
$$$$

     RDKit          3D

 22 21  0  0  0  0  0  0  0  0999 V2000
   -2.4096   -0.0043   -1.8492 N   0  0  0  0  0  0  0  0  0  0  0  0
   -1.5687   -0.5556   -0.8311 C   0  0  0  0  0  0  0  0  0  0  0  0
   -1.2726    0.4537    0.2851 C   0  0  1  0  0  0  0  0  0  0  0  0
   -2.4741    0.8682    0.8989 O   0  0  0  0  0  0  0  0  0  0  0  0
   -0.4346   -0.2596    1.3156 C   0  0  0  0  0  0  0  0  0  0  0  0
    0.7930   -0.6959    0.7191 N   0  0  0  0  0  0  0  0  0  0  0  0
    1.7608    0.1724    0.1353 C   0  0  0  0  0  0  0  0  0  0  0  0
    1.5453    1.4029    0.1343 O   0  0  0  0  0  0  0  0  0  0  0  0
    3.0142   -0.3778   -0.4666 C   0  0  0  0  0  0  0  0  0  0  0  0
    3.7502    0.6995   -0.9489 O   0  0  0  0  0  0  0  0  0  0  0  0
   -3.3232   -0.4861   -1.8916 H   0  0  0  0  0  0  0  0  0  0  0  0
   -2.4748    1.0248   -1.8581 H   0  0  0  0  0  0  0  0  0  0  0  0
   -2.0111   -1.4609   -0.4179 H   0  0  0  0  0  0  0  0  0  0  0  0
   -0.5751   -0.8160   -1.2559 H   0  0  0  0  0  0  0  0  0  0  0  0
   -0.7479    1.3323   -0.1148 H   0  0  0  0  0  0  0  0  0  0  0  0
   -2.8082    1.6879    0.4439 H   0  0  0  0  0  0  0  0  0  0  0  0
   -0.2732    0.4134    2.1892 H   0  0  0  0  0  0  0  0  0  0  0  0
   -0.9988   -1.1500    1.6556 H   0  0  0  0  0  0  0  0  0  0  0  0
    1.0478   -1.7216    0.6828 H   0  0  0  0  0  0  0  0  0  0  0  0
    2.6939   -1.0372   -1.3013 H   0  0  0  0  0  0  0  0  0  0  0  0
    3.5772   -0.9751    0.2716 H   0  0  0  0  0  0  0  0  0  0  0  0
    3.1894    1.4848   -1.0414 H   0  0  0  0  0  0  0  0  0  0  0  0
  1  2  1  0
  2  3  1  0
  3  4  1  0
  3  5  1  0
  5  6  1  0
  6  7  1  0
  7  8  2  0
  7  9  1  0
  9 10  1  0
  1 11  1  0
  1 12  1  0
  2 13  1  0
  2 14  1  0
  3 15  1  6
  4 16  1  0
  5 17  1  0
  5 18  1  0
  6 19  1  0
  9 20  1  0
  9 21  1  0
 10 22  1  0
M  END
$$$$

     RDKit          3D

 22 21  0  0  0  0  0  0  0  0999 V2000
   -3.8442    0.2735    0.1861 N   0  0  0  0  0  0  0  0  0  0  0  0
   -2.5532    0.8662    0.4774 C   0  0  0  0  0  0  0  0  0  0  0  0
   -1.4625   -0.1006    0.0491 C   0  0  1  0  0  0  0  0  0  0  0  0
   -1.5792   -0.3411   -1.3194 O   0  0  0  0  0  0  0  0  0  0  0  0
   -0.1336    0.5810    0.3223 C   0  0  0  0  0  0  0  0  0  0  0  0
    0.9346   -0.2967   -0.1242 N   0  0  0  0  0  0  0  0  0  0  0  0
    2.2888    0.1267    0.0274 C   0  0  0  0  0  0  0  0  0  0  0  0
    2.4933    1.2716    0.5553 O   0  0  0  0  0  0  0  0  0  0  0  0
    3.4170   -0.7301   -0.4114 C   0  0  0  0  0  0  0  0  0  0  0  0
    4.6077   -0.0591   -0.1388 O   0  0  0  0  0  0  0  0  0  0  0  0
   -3.8727   -0.7297    0.3937 H   0  0  0  0  0  0  0  0  0  0  0  0
   -4.1143    0.4281   -0.8125 H   0  0  0  0  0  0  0  0  0  0  0  0
   -2.4786    0.9843    1.5643 H   0  0  0  0  0  0  0  0  0  0  0  0
   -2.3865    1.8052   -0.0589 H   0  0  0  0  0  0  0  0  0  0  0  0
   -1.5152   -1.0636    0.5812 H   0  0  0  0  0  0  0  0  0  0  0  0
   -2.1181   -1.1583   -1.4269 H   0  0  0  0  0  0  0  0  0  0  0  0
    0.0046    0.7121    1.4138 H   0  0  0  0  0  0  0  0  0  0  0  0
   -0.0836    1.5383   -0.2247 H   0  0  0  0  0  0  0  0  0  0  0  0
    0.7682   -1.2330   -0.5559 H   0  0  0  0  0  0  0  0  0  0  0  0
    3.3614   -0.8890   -1.5110 H   0  0  0  0  0  0  0  0  0  0  0  0
    3.3902   -1.7406    0.0428 H   0  0  0  0  0  0  0  0  0  0  0  0
    4.8759   -0.2452    0.8048 H   0  0  0  0  0  0  0  0  0  0  0  0
  1  2  1  0
  2  3  1  0
  3  4  1  0
  3  5  1  0
  5  6  1  0
  6  7  1  0
  7  8  2  0
  7  9  1  0
  9 10  1  0
  1 11  1  0
  1 12  1  0
  2 13  1  0
  2 14  1  0
  3 15  1  1
  4 16  1  0
  5 17  1  0
  5 18  1  0
  6 19  1  0
  9 20  1  0
  9 21  1  0
 10 22  1  0
M  END
$$$$

     RDKit          3D

 22 21  0  0  0  0  0  0  0  0999 V2000
   -3.7741    0.5109   -0.5616 N   0  0  0  0  0  0  0  0  0  0  0  0
   -2.7672   -0.3967   -0.0178 C   0  0  0  0  0  0  0  0  0  0  0  0
   -1.4197    0.2258   -0.2984 C   0  0  1  0  0  0  0  0  0  0  0  0
   -1.3193    1.4767    0.3090 O   0  0  0  0  0  0  0  0  0  0  0  0
   -0.2750   -0.6061    0.1807 C   0  0  0  0  0  0  0  0  0  0  0  0
    0.9541    0.0614   -0.2022 N   0  0  0  0  0  0  0  0  0  0  0  0
    2.2383   -0.4676    0.1028 C   0  0  0  0  0  0  0  0  0  0  0  0
    2.2907   -1.5473    0.7236 O   0  0  0  0  0  0  0  0  0  0  0  0
    3.4748    0.2677   -0.3191 C   0  0  0  0  0  0  0  0  0  0  0  0
    4.6027   -0.4118    0.0724 O   0  0  0  0  0  0  0  0  0  0  0  0
   -4.1142    0.1876   -1.4938 H   0  0  0  0  0  0  0  0  0  0  0  0
   -3.3942    1.4730   -0.6932 H   0  0  0  0  0  0  0  0  0  0  0  0
   -2.9434   -0.5742    1.0464 H   0  0  0  0  0  0  0  0  0  0  0  0
   -2.9019   -1.3548   -0.5554 H   0  0  0  0  0  0  0  0  0  0  0  0
   -1.2926    0.3735   -1.3905 H   0  0  0  0  0  0  0  0  0  0  0  0
   -1.5449    1.3588    1.2766 H   0  0  0  0  0  0  0  0  0  0  0  0
   -0.2802   -0.6215    1.2991 H   0  0  0  0  0  0  0  0  0  0  0  0
   -0.3109   -1.6525   -0.1790 H   0  0  0  0  0  0  0  0  0  0  0  0
    0.9485    0.9653   -0.7218 H   0  0  0  0  0  0  0  0  0  0  0  0
    3.3864    1.2874    0.0926 H   0  0  0  0  0  0  0  0  0  0  0  0
    3.4769    0.3774   -1.4279 H   0  0  0  0  0  0  0  0  0  0  0  0
    4.9651   -0.9329   -0.6991 H   0  0  0  0  0  0  0  0  0  0  0  0
  1  2  1  0
  2  3  1  0
  3  4  1  0
  3  5  1  0
  5  6  1  0
  6  7  1  0
  7  8  2  0
  7  9  1  0
  9 10  1  0
  1 11  1  0
  1 12  1  0
  2 13  1  0
  2 14  1  0
  3 15  1  6
  4 16  1  0
  5 17  1  0
  5 18  1  0
  6 19  1  0
  9 20  1  0
  9 21  1  0
 10 22  1  0
M  END
$$$$

     RDKit          3D

 22 21  0  0  0  0  0  0  0  0999 V2000
   -3.2724    0.4526   -1.0585 N   0  0  0  0  0  0  0  0  0  0  0  0
   -2.8369   -0.3430    0.0442 C   0  0  0  0  0  0  0  0  0  0  0  0
   -1.4554   -0.0007    0.5174 C   0  0  1  0  0  0  0  0  0  0  0  0
   -1.1129   -0.8214    1.5905 O   0  0  0  0  0  0  0  0  0  0  0  0
   -0.4065   -0.1940   -0.5511 C   0  0  0  0  0  0  0  0  0  0  0  0
    0.8855    0.1826    0.0038 N   0  0  0  0  0  0  0  0  0  0  0  0
    2.0804    0.1148   -0.7495 C   0  0  0  0  0  0  0  0  0  0  0  0
    2.0038   -0.2891   -1.9438 O   0  0  0  0  0  0  0  0  0  0  0  0
    3.3647    0.5109   -0.1319 C   0  0  0  0  0  0  0  0  0  0  0  0
    4.4136    0.3735   -1.0307 O   0  0  0  0  0  0  0  0  0  0  0  0
   -2.6921    0.4080   -1.8999 H   0  0  0  0  0  0  0  0  0  0  0  0
   -3.5579    1.3982   -0.7633 H   0  0  0  0  0  0  0  0  0  0  0  0
   -2.9392   -1.4148   -0.2246 H   0  0  0  0  0  0  0  0  0  0  0  0
   -3.5297   -0.1618    0.8914 H   0  0  0  0  0  0  0  0  0  0  0  0
   -1.4474    1.0474    0.8472 H   0  0  0  0  0  0  0  0  0  0  0  0
   -1.1876   -1.7770    1.3028 H   0  0  0  0  0  0  0  0  0  0  0  0
   -0.3365   -1.2636   -0.8430 H   0  0  0  0  0  0  0  0  0  0  0  0
   -0.6045    0.3790   -1.4684 H   0  0  0  0  0  0  0  0  0  0  0  0
    0.9702    0.5229    1.0008 H   0  0  0  0  0  0  0  0  0  0  0  0
    3.5704   -0.1420    0.7357 H   0  0  0  0  0  0  0  0  0  0  0  0
    3.2795    1.5592    0.2365 H   0  0  0  0  0  0  0  0  0  0  0  0
    4.8110   -0.5415   -0.9214 H   0  0  0  0  0  0  0  0  0  0  0  0
  1  2  1  0
  2  3  1  0
  3  4  1  0
  3  5  1  0
  5  6  1  0
  6  7  1  0
  7  8  2  0
  7  9  1  0
  9 10  1  0
  1 11  1  0
  1 12  1  0
  2 13  1  0
  2 14  1  0
  3 15  1  1
  4 16  1  0
  5 17  1  0
  5 18  1  0
  6 19  1  0
  9 20  1  0
  9 21  1  0
 10 22  1  0
M  END
$$$$

     RDKit          3D

 22 21  0  0  0  0  0  0  0  0999 V2000
   -3.5131    0.4649    0.6846 N   0  0  0  0  0  0  0  0  0  0  0  0
   -2.5892    0.0384   -0.3542 C   0  0  0  0  0  0  0  0  0  0  0  0
   -1.1512    0.1113    0.1631 C   0  0  1  0  0  0  0  0  0  0  0  0
   -1.0844   -0.7355    1.2560 O   0  0  0  0  0  0  0  0  0  0  0  0
   -0.2603   -0.3824   -0.9384 C   0  0  0  0  0  0  0  0  0  0  0  0
    1.1178   -0.4788   -0.5977 N   0  0  0  0  0  0  0  0  0  0  0  0
    1.8690    0.6732   -0.1795 C   0  0  0  0  0  0  0  0  0  0  0  0
    1.2618    1.7677   -0.1266 O   0  0  0  0  0  0  0  0  0  0  0  0
    3.3006    0.5599    0.1718 C   0  0  0  0  0  0  0  0  0  0  0  0
    3.7829   -0.7254    0.0492 O   0  0  0  0  0  0  0  0  0  0  0  0
   -3.2529    1.4215    0.9954 H   0  0  0  0  0  0  0  0  0  0  0  0
   -3.5211   -0.2304    1.4608 H   0  0  0  0  0  0  0  0  0  0  0  0
   -2.8515   -1.0038   -0.6339 H   0  0  0  0  0  0  0  0  0  0  0  0
   -2.7364    0.6823   -1.2376 H   0  0  0  0  0  0  0  0  0  0  0  0
   -0.9763    1.1362    0.4747 H   0  0  0  0  0  0  0  0  0  0  0  0
   -1.0056   -1.6710    0.9098 H   0  0  0  0  0  0  0  0  0  0  0  0
   -0.4322    0.2493   -1.8597 H   0  0  0  0  0  0  0  0  0  0  0  0
   -0.6348   -1.3876   -1.2199 H   0  0  0  0  0  0  0  0  0  0  0  0
    1.5951   -1.4123   -0.6535 H   0  0  0  0  0  0  0  0  0  0  0  0
    3.4731    0.9180    1.2180 H   0  0  0  0  0  0  0  0  0  0  0  0
    3.9018    1.2103   -0.5039 H   0  0  0  0  0  0  0  0  0  0  0  0
    3.7069   -1.2056    0.9216 H   0  0  0  0  0  0  0  0  0  0  0  0
  1  2  1  0
  2  3  1  0
  3  4  1  0
  3  5  1  0
  5  6  1  0
  6  7  1  0
  7  8  2  0
  7  9  1  0
  9 10  1  0
  1 11  1  0
  1 12  1  0
  2 13  1  0
  2 14  1  0
  3 15  1  1
  4 16  1  0
  5 17  1  0
  5 18  1  0
  6 19  1  0
  9 20  1  0
  9 21  1  0
 10 22  1  0
M  END
$$$$
