
     RDKit          3D

 20 20  0  0  0  0  0  0  0  0999 V2000
   -0.9524    1.5582    0.6293 C   0  0  0  0  0  0  0  0  0  0  0  0
   -0.8751    0.5232   -0.4498 C   0  0  2  0  0  0  0  0  0  0  0  0
   -1.7965   -0.6741   -0.2032 C   0  0  2  0  0  0  0  0  0  0  0  0
   -1.7946   -1.1340    1.0940 O   0  0  0  0  0  0  0  0  0  0  0  0
   -0.7524   -1.3707   -1.0263 C   0  0  0  0  0  0  0  0  0  0  0  0
    0.2271   -0.3997   -0.4511 N   0  0  0  0  0  0  0  0  0  0  0  0
    1.5809   -0.5842   -0.1445 C   0  0  0  0  0  0  0  0  0  0  0  0
    2.1226   -1.7087   -0.3214 O   0  0  0  0  0  0  0  0  0  0  0  0
    2.3985    0.4863    0.3757 C   0  0  0  0  0  0  0  0  0  0  0  0
    2.0183    1.6647    0.5877 O   0  0  0  0  0  0  0  0  0  0  0  0
    3.7491    0.2527    0.6930 O   0  0  0  0  0  0  0  0  0  0  0  0
   -0.5232    2.5006    0.2440 H   0  0  0  0  0  0  0  0  0  0  0  0
   -0.4551    1.3011    1.5669 H   0  0  0  0  0  0  0  0  0  0  0  0
   -2.0182    1.8221    0.8777 H   0  0  0  0  0  0  0  0  0  0  0  0
   -1.0407    0.9000   -1.4804 H   0  0  0  0  0  0  0  0  0  0  0  0
   -2.7867   -0.5481   -0.6777 H   0  0  0  0  0  0  0  0  0  0  0  0
   -2.1336   -2.0714    1.0751 H   0  0  0  0  0  0  0  0  0  0  0  0
   -0.8033   -1.1522   -2.1143 H   0  0  0  0  0  0  0  0  0  0  0  0
   -0.5460   -2.4075   -0.7628 H   0  0  0  0  0  0  0  0  0  0  0  0
    4.3814    1.0417    0.6742 H   0  0  0  0  0  0  0  0  0  0  0  0
  1  2  1  0
  2  3  1  0
  3  4  1  0
  3  5  1  0
  5  6  1  0
  6  7  1  0
  7  8  2  0
  7  9  1  0
  9 10  2  0
  9 11  1  0
  6  2  1  0
  1 12  1  0
  1 13  1  0
  1 14  1  0
  2 15  1  6
  3 16  1  6
  4 17  1  0
  5 18  1  0
  5 19  1  0
 11 20  1  0
M  END
$$$$

     RDKit          3D

 20 20  0  0  0  0  0  0  0  0999 V2000
   -0.4978    1.1517   -1.3544 C   0  0  0  0  0  0  0  0  0  0  0  0
   -0.4726   -0.1900   -0.6551 C   0  0  2  0  0  0  0  0  0  0  0  0
   -1.7892   -0.5526    0.0127 C   0  0  2  0  0  0  0  0  0  0  0  0
   -2.8480    0.1628   -0.5559 O   0  0  0  0  0  0  0  0  0  0  0  0
   -1.1644    0.1045    1.2219 C   0  0  0  0  0  0  0  0  0  0  0  0
    0.1299   -0.1104    0.6528 N   0  0  0  0  0  0  0  0  0  0  0  0
    1.4514   -0.2084    1.1347 C   0  0  0  0  0  0  0  0  0  0  0  0
    1.6825   -0.0934    2.3761 O   0  0  0  0  0  0  0  0  0  0  0  0
    2.5621   -0.4379    0.2510 C   0  0  0  0  0  0  0  0  0  0  0  0
    2.3575   -0.5547   -0.9796 O   0  0  0  0  0  0  0  0  0  0  0  0
    3.8692   -0.5389    0.6916 O   0  0  0  0  0  0  0  0  0  0  0  0
   -1.5111    1.3092   -1.7718 H   0  0  0  0  0  0  0  0  0  0  0  0
   -0.2385    1.9460   -0.6251 H   0  0  0  0  0  0  0  0  0  0  0  0
    0.2654    1.1105   -2.1628 H   0  0  0  0  0  0  0  0  0  0  0  0
   -0.0942   -1.0140   -1.2928 H   0  0  0  0  0  0  0  0  0  0  0  0
   -1.9729   -1.6167    0.1579 H   0  0  0  0  0  0  0  0  0  0  0  0
   -3.5912   -0.4532   -0.6783 H   0  0  0  0  0  0  0  0  0  0  0  0
   -1.3214   -0.4700    2.1463 H   0  0  0  0  0  0  0  0  0  0  0  0
   -1.4555    1.1586    1.3608 H   0  0  0  0  0  0  0  0  0  0  0  0
    4.6390   -0.7033    0.0701 H   0  0  0  0  0  0  0  0  0  0  0  0
  1  2  1  0
  2  3  1  0
  3  4  1  0
  3  5  1  0
  5  6  1  0
  6  7  1  0
  7  8  2  0
  7  9  1  0
  9 10  2  0
  9 11  1  0
  6  2  1  0
  1 12  1  0
  1 13  1  0
  1 14  1  0
  2 15  1  6
  3 16  1  1
  4 17  1  0
  5 18  1  0
  5 19  1  0
 11 20  1  0
M  END
$$$$

     RDKit          3D

 20 20  0  0  0  0  0  0  0  0999 V2000
   -1.2841    1.7474   -0.0866 C   0  0  0  0  0  0  0  0  0  0  0  0
   -1.0083    0.3865   -0.6851 C   0  0  2  0  0  0  0  0  0  0  0  0
   -1.6772   -0.7634    0.0299 C   0  0  2  0  0  0  0  0  0  0  0  0
   -2.7370   -0.4005    0.8230 O   0  0  0  0  0  0  0  0  0  0  0  0
   -0.3500   -0.9295    0.7361 C   0  0  0  0  0  0  0  0  0  0  0  0
    0.2856   -0.0881   -0.2366 N   0  0  0  0  0  0  0  0  0  0  0  0
    1.6197    0.2015   -0.6391 C   0  0  0  0  0  0  0  0  0  0  0  0
    1.8532    1.0229   -1.5652 O   0  0  0  0  0  0  0  0  0  0  0  0
    2.7459   -0.4406    0.0056 C   0  0  0  0  0  0  0  0  0  0  0  0
    2.5205   -1.2604    0.9293 O   0  0  0  0  0  0  0  0  0  0  0  0
    4.0359   -0.1642   -0.3795 O   0  0  0  0  0  0  0  0  0  0  0  0
   -0.9628    1.7706    0.9867 H   0  0  0  0  0  0  0  0  0  0  0  0
   -2.3327    2.0428   -0.1367 H   0  0  0  0  0  0  0  0  0  0  0  0
   -0.6342    2.4735   -0.6170 H   0  0  0  0  0  0  0  0  0  0  0  0
   -1.1080    0.3962   -1.7837 H   0  0  0  0  0  0  0  0  0  0  0  0
   -1.8876   -1.6319   -0.6418 H   0  0  0  0  0  0  0  0  0  0  0  0
   -3.4759   -1.0556    0.7514 H   0  0  0  0  0  0  0  0  0  0  0  0
    0.0204   -1.9532    0.7397 H   0  0  0  0  0  0  0  0  0  0  0  0
   -0.4251   -0.5272    1.7620 H   0  0  0  0  0  0  0  0  0  0  0  0
    4.8017   -0.8268   -0.2246 H   0  0  0  0  0  0  0  0  0  0  0  0
  1  2  1  0
  2  3  1  0
  3  4  1  0
  3  5  1  0
  5  6  1  0
  6  7  1  0
  7  8  2  0
  7  9  1  0
  9 10  2  0
  9 11  1  0
  6  2  1  0
  1 12  1  0
  1 13  1  0
  1 14  1  0
  2 15  1  6
  3 16  1  6
  4 17  1  0
  5 18  1  0
  5 19  1  0
 11 20  1  0
M  END
$$$$

     RDKit          3D

 20 20  0  0  0  0  0  0  0  0999 V2000
   -0.5573    1.6072    0.4993 C   0  0  0  0  0  0  0  0  0  0  0  0
   -0.7908    0.5782   -0.5723 C   0  0  2  0  0  0  0  0  0  0  0  0
   -1.8947   -0.4242   -0.2007 C   0  0  2  0  0  0  0  0  0  0  0  0
   -1.9085   -0.7545    1.1506 O   0  0  0  0  0  0  0  0  0  0  0  0
   -1.0322   -1.3716   -0.9682 C   0  0  0  0  0  0  0  0  0  0  0  0
    0.1061   -0.5173   -0.6895 N   0  0  0  0  0  0  0  0  0  0  0  0
    1.4919   -0.8212   -0.6045 C   0  0  0  0  0  0  0  0  0  0  0  0
    1.8876   -2.0400   -0.7703 O   0  0  0  0  0  0  0  0  0  0  0  0
    2.5410    0.1328   -0.3427 C   0  0  0  0  0  0  0  0  0  0  0  0
    2.2704    1.3361   -0.1853 O   0  0  0  0  0  0  0  0  0  0  0  0
    3.8517   -0.2741   -0.2637 O   0  0  0  0  0  0  0  0  0  0  0  0
    0.0359    1.2807    1.3465 H   0  0  0  0  0  0  0  0  0  0  0  0
   -1.5464    1.9423    0.9466 H   0  0  0  0  0  0  0  0  0  0  0  0
   -0.1633    2.5241    0.0214 H   0  0  0  0  0  0  0  0  0  0  0  0
   -1.0140    1.0003   -1.5776 H   0  0  0  0  0  0  0  0  0  0  0  0
   -2.8629   -0.1643   -0.6392 H   0  0  0  0  0  0  0  0  0  0  0  0
   -2.8434   -0.6577    1.4600 H   0  0  0  0  0  0  0  0  0  0  0  0
   -1.2490   -1.3274   -2.0688 H   0  0  0  0  0  0  0  0  0  0  0  0
   -0.9512   -2.3978   -0.5661 H   0  0  0  0  0  0  0  0  0  0  0  0
    4.6291    0.3482   -0.0695 H   0  0  0  0  0  0  0  0  0  0  0  0
  1  2  1  0
  2  3  1  0
  3  4  1  0
  3  5  1  0
  5  6  1  0
  6  7  1  0
  7  8  2  0
  7  9  1  0
  9 10  2  0
  9 11  1  0
  6  2  1  0
  1 12  1  0
  1 13  1  0
  1 14  1  0
  2 15  1  6
  3 16  1  6
  4 17  1  0
  5 18  1  0
  5 19  1  0
 11 20  1  0
M  END
$$$$

     RDKit          3D

 20 20  0  0  0  0  0  0  0  0999 V2000
   -0.8301   -1.5330    0.4071 C   0  0  0  0  0  0  0  0  0  0  0  0
   -0.6602   -0.0421    0.5497 C   0  0  2  0  0  0  0  0  0  0  0  0
   -1.7155    0.8095   -0.0651 C   0  0  2  0  0  0  0  0  0  0  0  0
   -2.9904    0.3317   -0.1155 O   0  0  0  0  0  0  0  0  0  0  0  0
   -0.8826    0.6266   -1.3256 C   0  0  0  0  0  0  0  0  0  0  0  0
    0.2558    0.4488   -0.4538 N   0  0  0  0  0  0  0  0  0  0  0  0
    1.6466    0.6662   -0.5577 C   0  0  0  0  0  0  0  0  0  0  0  0
    2.1384    1.1281   -1.6299 O   0  0  0  0  0  0  0  0  0  0  0  0
    2.4929    0.3516    0.5808 C   0  0  0  0  0  0  0  0  0  0  0  0
    2.0186   -0.1024    1.6380 O   0  0  0  0  0  0  0  0  0  0  0  0
    3.8771    0.5439    0.5417 O   0  0  0  0  0  0  0  0  0  0  0  0
   -1.4886   -1.8239   -0.4234 H   0  0  0  0  0  0  0  0  0  0  0  0
    0.1568   -2.0330    0.2907 H   0  0  0  0  0  0  0  0  0  0  0  0
   -1.2606   -1.9661    1.3547 H   0  0  0  0  0  0  0  0  0  0  0  0
   -0.4022    0.2092    1.5978 H   0  0  0  0  0  0  0  0  0  0  0  0
   -1.6374    1.8569    0.3219 H   0  0  0  0  0  0  0  0  0  0  0  0
   -3.1156   -0.6120    0.0742 H   0  0  0  0  0  0  0  0  0  0  0  0
   -1.2339   -0.2848   -1.8482 H   0  0  0  0  0  0  0  0  0  0  0  0
   -0.8731    1.5395   -1.9479 H   0  0  0  0  0  0  0  0  0  0  0  0
    4.5039   -0.1148    1.0107 H   0  0  0  0  0  0  0  0  0  0  0  0
  1  2  1  0
  2  3  1  0
  3  4  1  0
  3  5  1  0
  5  6  1  0
  6  7  1  0
  7  8  2  0
  7  9  1  0
  9 10  2  0
  9 11  1  0
  6  2  1  0
  1 12  1  0
  1 13  1  0
  1 14  1  0
  2 15  1  1
  3 16  1  1
  4 17  1  0
  5 18  1  0
  5 19  1  0
 11 20  1  0
M  END
$$$$

     RDKit          3D

 20 20  0  0  0  0  0  0  0  0999 V2000
   -1.1889   -1.6777   -0.7741 C   0  0  0  0  0  0  0  0  0  0  0  0
   -0.8842   -0.7900    0.3890 C   0  0  2  0  0  0  0  0  0  0  0  0
   -1.7437    0.4238    0.5437 C   0  0  2  0  0  0  0  0  0  0  0  0
   -2.4595    0.8164   -0.5656 O   0  0  0  0  0  0  0  0  0  0  0  0
   -0.4464    1.2072    0.6393 C   0  0  0  0  0  0  0  0  0  0  0  0
    0.2975    0.0333    0.2068 N   0  0  0  0  0  0  0  0  0  0  0  0
    1.6114   -0.2454   -0.2202 C   0  0  0  0  0  0  0  0  0  0  0  0
    1.9620   -1.4104   -0.5390 O   0  0  0  0  0  0  0  0  0  0  0  0
    2.5667    0.8409   -0.2885 C   0  0  0  0  0  0  0  0  0  0  0  0
    2.2701    2.0134    0.0163 O   0  0  0  0  0  0  0  0  0  0  0  0
    3.8628    0.5935   -0.7045 O   0  0  0  0  0  0  0  0  0  0  0  0
   -0.6479   -1.3358   -1.6902 H   0  0  0  0  0  0  0  0  0  0  0  0
   -0.8501   -2.7158   -0.5597 H   0  0  0  0  0  0  0  0  0  0  0  0
   -2.2602   -1.7398   -1.0118 H   0  0  0  0  0  0  0  0  0  0  0  0
   -0.7729   -1.3848    1.3222 H   0  0  0  0  0  0  0  0  0  0  0  0
   -2.2636    0.4161    1.5085 H   0  0  0  0  0  0  0  0  0  0  0  0
   -3.1120    0.1538   -0.8756 H   0  0  0  0  0  0  0  0  0  0  0  0
   -0.1914    1.5444    1.6457 H   0  0  0  0  0  0  0  0  0  0  0  0
   -0.3409    2.0236   -0.0827 H   0  0  0  0  0  0  0  0  0  0  0  0
    4.5911    1.2335   -0.3679 H   0  0  0  0  0  0  0  0  0  0  0  0
  1  2  1  0
  2  3  1  0
  3  4  1  0
  3  5  1  0
  5  6  1  0
  6  7  1  0
  7  8  2  0
  7  9  1  0
  9 10  2  0
  9 11  1  0
  6  2  1  0
  1 12  1  0
  1 13  1  0
  1 14  1  0
  2 15  1  1
  3 16  1  1
  4 17  1  0
  5 18  1  0
  5 19  1  0
 11 20  1  0
M  END
$$$$

     RDKit          3D

 20 20  0  0  0  0  0  0  0  0999 V2000
   -0.9138    1.5528    0.4297 C   0  0  0  0  0  0  0  0  0  0  0  0
   -0.6098    0.3802   -0.4610 C   0  0  2  0  0  0  0  0  0  0  0  0
   -1.7042   -0.6403   -0.5065 C   0  0  2  0  0  0  0  0  0  0  0  0
   -2.8898   -0.2445    0.1014 O   0  0  0  0  0  0  0  0  0  0  0  0
   -0.8681   -1.4640    0.4216 C   0  0  0  0  0  0  0  0  0  0  0  0
    0.2593   -0.6258    0.1410 N   0  0  0  0  0  0  0  0  0  0  0  0
    1.6510   -0.7129    0.3503 C   0  0  0  0  0  0  0  0  0  0  0  0
    2.1232   -1.7413    0.9161 O   0  0  0  0  0  0  0  0  0  0  0  0
    2.5409    0.3589   -0.0742 C   0  0  0  0  0  0  0  0  0  0  0  0
    2.0486    1.3708   -0.6342 O   0  0  0  0  0  0  0  0  0  0  0  0
    3.9002    0.2280    0.1530 O   0  0  0  0  0  0  0  0  0  0  0  0
   -0.0810    1.8300    1.0975 H   0  0  0  0  0  0  0  0  0  0  0  0
   -1.8585    1.3803    1.0188 H   0  0  0  0  0  0  0  0  0  0  0  0
   -1.1339    2.4655   -0.1920 H   0  0  0  0  0  0  0  0  0  0  0  0
   -0.2438    0.6801   -1.4672 H   0  0  0  0  0  0  0  0  0  0  0  0
   -1.8915   -1.0713   -1.5092 H   0  0  0  0  0  0  0  0  0  0  0  0
   -3.0040   -0.6865    0.9764 H   0  0  0  0  0  0  0  0  0  0  0  0
   -0.7348   -2.5272    0.1397 H   0  0  0  0  0  0  0  0  0  0  0  0
   -1.1482   -1.4238    1.5001 H   0  0  0  0  0  0  0  0  0  0  0  0
    4.5581    0.8912   -0.2156 H   0  0  0  0  0  0  0  0  0  0  0  0
  1  2  1  0
  2  3  1  0
  3  4  1  0
  3  5  1  0
  5  6  1  0
  6  7  1  0
  7  8  2  0
  7  9  1  0
  9 10  2  0
  9 11  1  0
  6  2  1  0
  1 12  1  0
  1 13  1  0
  1 14  1  0
  2 15  1  6
  3 16  1  6
  4 17  1  0
  5 18  1  0
  5 19  1  0
 11 20  1  0
M  END
$$$$

     RDKit          3D

 20 20  0  0  0  0  0  0  0  0999 V2000
   -2.1190    0.1369   -1.0088 C   0  0  0  0  0  0  0  0  0  0  0  0
   -1.1885   -0.7440   -0.2504 C   0  0  2  0  0  0  0  0  0  0  0  0
   -1.2223   -0.6040    1.2551 C   0  0  2  0  0  0  0  0  0  0  0  0
   -1.4183    0.6936    1.7210 O   0  0  0  0  0  0  0  0  0  0  0  0
    0.2683   -0.9254    1.1097 C   0  0  0  0  0  0  0  0  0  0  0  0
    0.1934   -0.3085   -0.1978 N   0  0  0  0  0  0  0  0  0  0  0  0
    1.1289    0.3911   -0.9869 C   0  0  0  0  0  0  0  0  0  0  0  0
    0.7811    0.8190   -2.0949 O   0  0  0  0  0  0  0  0  0  0  0  0
    2.4781    0.6092   -0.5138 C   0  0  0  0  0  0  0  0  0  0  0  0
    2.8782    0.1928    0.6067 O   0  0  0  0  0  0  0  0  0  0  0  0
    3.4119    1.2994   -1.2850 O   0  0  0  0  0  0  0  0  0  0  0  0
   -2.5789    0.9113   -0.3724 H   0  0  0  0  0  0  0  0  0  0  0  0
   -2.9657   -0.4418   -1.4658 H   0  0  0  0  0  0  0  0  0  0  0  0
   -1.6180    0.6427   -1.8681 H   0  0  0  0  0  0  0  0  0  0  0  0
   -1.2389   -1.8209   -0.5155 H   0  0  0  0  0  0  0  0  0  0  0  0
   -1.7644   -1.3710    1.8073 H   0  0  0  0  0  0  0  0  0  0  0  0
   -0.5627    1.0910    2.0579 H   0  0  0  0  0  0  0  0  0  0  0  0
    0.9210   -0.3782    1.7958 H   0  0  0  0  0  0  0  0  0  0  0  0
    0.4643   -2.0136    1.0314 H   0  0  0  0  0  0  0  0  0  0  0  0
    4.1516    1.8204   -0.8254 H   0  0  0  0  0  0  0  0  0  0  0  0
  1  2  1  0
  2  3  1  0
  3  4  1  0
  3  5  1  0
  5  6  1  0
  6  7  1  0
  7  8  2  0
  7  9  1  0
  9 10  2  0
  9 11  1  0
  6  2  1  0
  1 12  1  0
  1 13  1  0
  1 14  1  0
  2 15  1  1
  3 16  1  1
  4 17  1  0
  5 18  1  0
  5 19  1  0
 11 20  1  0
M  END
$$$$
