
     RDKit          3D

 26 26  0  0  0  0  0  0  0  0999 V2000
    4.3729    0.0119    1.4556 C   0  0  0  0  0  0  0  0  0  0  0  0
    3.7577   -0.1005    0.2154 O   0  0  0  0  0  0  0  0  0  0  0  0
    2.5240    0.5342    0.2870 C   0  0  1  0  0  0  0  0  0  0  0  0
    2.1273    1.2456   -0.9667 C   0  0  0  0  0  0  0  0  0  0  0  0
    1.3758    0.0472   -0.5166 C   0  0  2  0  0  0  0  0  0  0  0  0
    0.0289    0.1660   -0.0139 N   0  0  0  0  0  0  0  0  0  0  0  0
   -0.9664   -0.8103   -0.2873 C   0  0  0  0  0  0  0  0  0  0  0  0
   -0.6717   -1.8125   -0.9892 O   0  0  0  0  0  0  0  0  0  0  0  0
   -2.3598   -0.7250    0.2100 C   0  0  1  0  0  0  0  0  0  0  0  0
   -2.5892    0.4066    0.9690 O   0  0  0  0  0  0  0  0  0  0  0  0
   -3.2721   -0.6921   -1.0124 C   0  0  0  0  0  0  0  0  0  0  0  0
   -4.6556   -0.6623   -0.6020 N   0  0  0  0  0  0  0  0  0  0  0  0
    3.6868   -0.4925    2.1927 H   0  0  0  0  0  0  0  0  0  0  0  0
    4.4060    1.1164    1.6803 H   0  0  0  0  0  0  0  0  0  0  0  0
    5.3645   -0.4577    1.5038 H   0  0  0  0  0  0  0  0  0  0  0  0
    2.2982    0.9774    1.2728 H   0  0  0  0  0  0  0  0  0  0  0  0
    2.8028    1.2040   -1.8452 H   0  0  0  0  0  0  0  0  0  0  0  0
    1.5946    2.2271   -0.9039 H   0  0  0  0  0  0  0  0  0  0  0  0
    1.5664   -0.8705   -1.1342 H   0  0  0  0  0  0  0  0  0  0  0  0
   -0.2462    0.9856    0.5710 H   0  0  0  0  0  0  0  0  0  0  0  0
   -2.5714   -1.6363    0.7936 H   0  0  0  0  0  0  0  0  0  0  0  0
   -2.5490    1.2220    0.4208 H   0  0  0  0  0  0  0  0  0  0  0  0
   -3.1213   -1.5954   -1.6383 H   0  0  0  0  0  0  0  0  0  0  0  0
   -3.0149    0.1851   -1.6269 H   0  0  0  0  0  0  0  0  0  0  0  0
   -4.6908   -0.4666    0.4032 H   0  0  0  0  0  0  0  0  0  0  0  0
   -5.1973   -0.0074   -1.1818 H   0  0  0  0  0  0  0  0  0  0  0  0
  1  2  1  0
  2  3  1  0
  3  4  1  0
  4  5  1  0
  5  6  1  0
  6  7  1  0
  7  8  2  0
  7  9  1  0
  9 10  1  0
  9 11  1  0
 11 12  1  0
  5  3  1  0
  1 13  1  0
  1 14  1  0
  1 15  1  0
  3 16  1  1
  4 17  1  0
  4 18  1  0
  5 19  1  6
  6 20  1  0
  9 21  1  1
 10 22  1  0
 11 23  1  0
 11 24  1  0
 12 25  1  0
 12 26  1  0
M  END
$$$$

     RDKit          3D

 26 26  0  0  0  0  0  0  0  0999 V2000
    3.5393    1.0331    1.3045 C   0  0  0  0  0  0  0  0  0  0  0  0
    3.1397   -0.2384    0.9472 O   0  0  0  0  0  0  0  0  0  0  0  0
    2.3715   -0.2891   -0.1954 C   0  0  1  0  0  0  0  0  0  0  0  0
    2.3267   -1.4648   -1.0813 C   0  0  0  0  0  0  0  0  0  0  0  0
    1.2270   -1.3075   -0.1270 C   0  0  2  0  0  0  0  0  0  0  0  0
   -0.0473   -0.7498   -0.4598 N   0  0  0  0  0  0  0  0  0  0  0  0
   -1.2545   -1.0525    0.2258 C   0  0  0  0  0  0  0  0  0  0  0  0
   -1.1775   -1.8585    1.1761 O   0  0  0  0  0  0  0  0  0  0  0  0
   -2.5235   -0.4107   -0.2098 C   0  0  1  0  0  0  0  0  0  0  0  0
   -3.6014   -0.8021    0.5486 O   0  0  0  0  0  0  0  0  0  0  0  0
   -2.3013    1.1036   -0.0966 C   0  0  0  0  0  0  0  0  0  0  0  0
   -3.4910    1.8113   -0.5691 N   0  0  0  0  0  0  0  0  0  0  0  0
    4.1448    0.9383    2.2310 H   0  0  0  0  0  0  0  0  0  0  0  0
    2.6859    1.6975    1.5513 H   0  0  0  0  0  0  0  0  0  0  0  0
    4.2104    1.4907    0.5426 H   0  0  0  0  0  0  0  0  0  0  0  0
    2.1834    0.6854   -0.6631 H   0  0  0  0  0  0  0  0  0  0  0  0
    2.1182   -1.2997   -2.1604 H   0  0  0  0  0  0  0  0  0  0  0  0
    3.0317   -2.3277   -0.9315 H   0  0  0  0  0  0  0  0  0  0  0  0
    1.2058   -2.0116    0.7269 H   0  0  0  0  0  0  0  0  0  0  0  0
   -0.0892   -0.0778   -1.2581 H   0  0  0  0  0  0  0  0  0  0  0  0
   -2.6437   -0.6188   -1.2924 H   0  0  0  0  0  0  0  0  0  0  0  0
   -3.9608   -1.6687    0.2241 H   0  0  0  0  0  0  0  0  0  0  0  0
   -2.1779    1.3645    0.9714 H   0  0  0  0  0  0  0  0  0  0  0  0
   -1.4468    1.4024   -0.7297 H   0  0  0  0  0  0  0  0  0  0  0  0
   -4.2268    1.8672    0.1733 H   0  0  0  0  0  0  0  0  0  0  0  0
   -3.2425    2.7839   -0.8487 H   0  0  0  0  0  0  0  0  0  0  0  0
  1  2  1  0
  2  3  1  0
  3  4  1  0
  4  5  1  0
  5  6  1  0
  6  7  1  0
  7  8  2  0
  7  9  1  0
  9 10  1  0
  9 11  1  0
 11 12  1  0
  5  3  1  0
  1 13  1  0
  1 14  1  0
  1 15  1  0
  3 16  1  6
  4 17  1  0
  4 18  1  0
  5 19  1  1
  6 20  1  0
  9 21  1  6
 10 22  1  0
 11 23  1  0
 11 24  1  0
 12 25  1  0
 12 26  1  0
M  END
$$$$

     RDKit          3D

 26 26  0  0  0  0  0  0  0  0999 V2000
   -4.1242   -1.1451   -0.0320 C   0  0  0  0  0  0  0  0  0  0  0  0
   -3.3644   -0.2184    0.7009 O   0  0  0  0  0  0  0  0  0  0  0  0
   -2.3305    0.3207   -0.0508 C   0  0  1  0  0  0  0  0  0  0  0  0
   -2.0880    1.7731    0.1113 C   0  0  0  0  0  0  0  0  0  0  0  0
   -1.0642    0.7359    0.6191 C   0  0  2  0  0  0  0  0  0  0  0  0
    0.1798    0.7270   -0.0904 N   0  0  0  0  0  0  0  0  0  0  0  0
    1.3930    0.5460    0.6733 C   0  0  0  0  0  0  0  0  0  0  0  0
    1.3465    0.4014    1.9246 O   0  0  0  0  0  0  0  0  0  0  0  0
    2.6951    0.5272    0.0103 C   0  0  1  0  0  0  0  0  0  0  0  0
    3.7031    0.3418    0.9433 O   0  0  0  0  0  0  0  0  0  0  0  0
    2.8269   -0.5587   -1.0251 C   0  0  0  0  0  0  0  0  0  0  0  0
    2.7045   -1.8802   -0.4677 N   0  0  0  0  0  0  0  0  0  0  0  0
   -4.9132   -1.5092    0.6567 H   0  0  0  0  0  0  0  0  0  0  0  0
   -4.5795   -0.6852   -0.9266 H   0  0  0  0  0  0  0  0  0  0  0  0
   -3.5019   -2.0395   -0.2952 H   0  0  0  0  0  0  0  0  0  0  0  0
   -2.2969   -0.0835   -1.0973 H   0  0  0  0  0  0  0  0  0  0  0  0
   -2.5893    2.3719    0.8939 H   0  0  0  0  0  0  0  0  0  0  0  0
   -1.8240    2.3464   -0.7885 H   0  0  0  0  0  0  0  0  0  0  0  0
   -1.0432    0.6040    1.7190 H   0  0  0  0  0  0  0  0  0  0  0  0
    0.2940    0.8388   -1.1060 H   0  0  0  0  0  0  0  0  0  0  0  0
    2.9057    1.4963   -0.4967 H   0  0  0  0  0  0  0  0  0  0  0  0
    3.3672    0.3641    1.8882 H   0  0  0  0  0  0  0  0  0  0  0  0
    3.8453   -0.4707   -1.4583 H   0  0  0  0  0  0  0  0  0  0  0  0
    2.1136   -0.3681   -1.8481 H   0  0  0  0  0  0  0  0  0  0  0  0
    3.0095   -1.9084    0.5310 H   0  0  0  0  0  0  0  0  0  0  0  0
    3.3351   -2.5278   -0.9889 H   0  0  0  0  0  0  0  0  0  0  0  0
  1  2  1  0
  2  3  1  0
  3  4  1  0
  4  5  1  0
  5  6  1  0
  6  7  1  0
  7  8  2  0
  7  9  1  0
  9 10  1  0
  9 11  1  0
 11 12  1  0
  5  3  1  0
  1 13  1  0
  1 14  1  0
  1 15  1  0
  3 16  1  6
  4 17  1  0
  4 18  1  0
  5 19  1  1
  6 20  1  0
  9 21  1  6
 10 22  1  0
 11 23  1  0
 11 24  1  0
 12 25  1  0
 12 26  1  0
M  END
$$$$

     RDKit          3D

 26 26  0  0  0  0  0  0  0  0999 V2000
   -4.0954    2.0365    0.8379 C   0  0  0  0  0  0  0  0  0  0  0  0
   -3.4323    1.1459   -0.0003 O   0  0  0  0  0  0  0  0  0  0  0  0
   -2.3329    0.5820    0.6415 C   0  0  1  0  0  0  0  0  0  0  0  0
   -2.2036   -0.9033    0.3942 C   0  0  0  0  0  0  0  0  0  0  0  0
   -1.2333    0.1317   -0.2149 C   0  0  2  0  0  0  0  0  0  0  0  0
    0.1181   -0.0288    0.2426 N   0  0  0  0  0  0  0  0  0  0  0  0
    1.2432    0.0541   -0.6401 C   0  0  0  0  0  0  0  0  0  0  0  0
    0.9579    0.2780   -1.8450 O   0  0  0  0  0  0  0  0  0  0  0  0
    2.5999   -0.1165   -0.1256 C   0  0  1  0  0  0  0  0  0  0  0  0
    2.5487   -0.3472    1.2382 O   0  0  0  0  0  0  0  0  0  0  0  0
    3.3612   -1.2373   -0.7754 C   0  0  0  0  0  0  0  0  0  0  0  0
    3.4694   -1.0863   -2.2070 N   0  0  0  0  0  0  0  0  0  0  0  0
   -3.4241    2.8743    1.1607 H   0  0  0  0  0  0  0  0  0  0  0  0
   -5.0266    2.4235    0.3880 H   0  0  0  0  0  0  0  0  0  0  0  0
   -4.4031    1.5395    1.7899 H   0  0  0  0  0  0  0  0  0  0  0  0
   -2.1975    0.9391    1.6705 H   0  0  0  0  0  0  0  0  0  0  0  0
   -2.8567   -1.3983   -0.3409 H   0  0  0  0  0  0  0  0  0  0  0  0
   -1.8593   -1.4839    1.2496 H   0  0  0  0  0  0  0  0  0  0  0  0
   -1.3159    0.3232   -1.3041 H   0  0  0  0  0  0  0  0  0  0  0  0
    0.2886   -0.2130    1.2562 H   0  0  0  0  0  0  0  0  0  0  0  0
    3.1587    0.8297   -0.3137 H   0  0  0  0  0  0  0  0  0  0  0  0
    3.1346   -1.1051    1.4932 H   0  0  0  0  0  0  0  0  0  0  0  0
    4.3938   -1.2266   -0.3670 H   0  0  0  0  0  0  0  0  0  0  0  0
    2.8986   -2.2048   -0.4846 H   0  0  0  0  0  0  0  0  0  0  0  0
    3.4098   -0.1011   -2.5198 H   0  0  0  0  0  0  0  0  0  0  0  0
    2.7983   -1.7055   -2.7216 H   0  0  0  0  0  0  0  0  0  0  0  0
  1  2  1  0
  2  3  1  0
  3  4  1  0
  4  5  1  0
  5  6  1  0
  6  7  1  0
  7  8  2  0
  7  9  1  0
  9 10  1  0
  9 11  1  0
 11 12  1  0
  5  3  1  0
  1 13  1  0
  1 14  1  0
  1 15  1  0
  3 16  1  1
  4 17  1  0
  4 18  1  0
  5 19  1  6
  6 20  1  0
  9 21  1  1
 10 22  1  0
 11 23  1  0
 11 24  1  0
 12 25  1  0
 12 26  1  0
M  END
$$$$

     RDKit          3D

 26 26  0  0  0  0  0  0  0  0999 V2000
    4.3944   -0.8108   -0.1512 C   0  0  0  0  0  0  0  0  0  0  0  0
    3.5707    0.3050   -0.2791 O   0  0  0  0  0  0  0  0  0  0  0  0
    2.4462    0.2292    0.5185 C   0  0  1  0  0  0  0  0  0  0  0  0
    2.0322    1.5102    1.1584 C   0  0  0  0  0  0  0  0  0  0  0  0
    1.1982    0.8500    0.0292 C   0  0  2  0  0  0  0  0  0  0  0  0
   -0.0944    0.4518    0.4726 N   0  0  0  0  0  0  0  0  0  0  0  0
   -1.2205    0.6750   -0.3797 C   0  0  0  0  0  0  0  0  0  0  0  0
   -1.0595    1.2154   -1.5012 O   0  0  0  0  0  0  0  0  0  0  0  0
   -2.5810    0.2814    0.0314 C   0  0  1  0  0  0  0  0  0  0  0  0
   -3.4799    0.6106   -0.9777 O   0  0  0  0  0  0  0  0  0  0  0  0
   -2.7024   -1.2071    0.2656 C   0  0  0  0  0  0  0  0  0  0  0  0
   -4.0826   -1.4651    0.6641 N   0  0  0  0  0  0  0  0  0  0  0  0
    5.2736   -0.6982   -0.8071 H   0  0  0  0  0  0  0  0  0  0  0  0
    3.8586   -1.7553   -0.3773 H   0  0  0  0  0  0  0  0  0  0  0  0
    4.7889   -0.9202    0.8828 H   0  0  0  0  0  0  0  0  0  0  0  0
    2.3941   -0.7036    1.1204 H   0  0  0  0  0  0  0  0  0  0  0  0
    1.6740    1.4237    2.1872 H   0  0  0  0  0  0  0  0  0  0  0  0
    2.4608    2.4676    0.8716 H   0  0  0  0  0  0  0  0  0  0  0  0
    1.2545    1.3150   -0.9624 H   0  0  0  0  0  0  0  0  0  0  0  0
   -0.3132   -0.0011    1.3851 H   0  0  0  0  0  0  0  0  0  0  0  0
   -2.8116    0.8397    0.9655 H   0  0  0  0  0  0  0  0  0  0  0  0
   -3.2826    1.4867   -1.3917 H   0  0  0  0  0  0  0  0  0  0  0  0
   -2.5198   -1.7625   -0.6543 H   0  0  0  0  0  0  0  0  0  0  0  0
   -2.0190   -1.4633    1.1002 H   0  0  0  0  0  0  0  0  0  0  0  0
   -4.4913   -2.2583    0.1165 H   0  0  0  0  0  0  0  0  0  0  0  0
   -4.6884   -0.6160    0.5475 H   0  0  0  0  0  0  0  0  0  0  0  0
  1  2  1  0
  2  3  1  0
  3  4  1  0
  4  5  1  0
  5  6  1  0
  6  7  1  0
  7  8  2  0
  7  9  1  0
  9 10  1  0
  9 11  1  0
 11 12  1  0
  5  3  1  0
  1 13  1  0
  1 14  1  0
  1 15  1  0
  3 16  1  1
  4 17  1  0
  4 18  1  0
  5 19  1  6
  6 20  1  0
  9 21  1  1
 10 22  1  0
 11 23  1  0
 11 24  1  0
 12 25  1  0
 12 26  1  0
M  END
$$$$

     RDKit          3D

 26 26  0  0  0  0  0  0  0  0999 V2000
    4.0838    0.3045    1.4886 C   0  0  0  0  0  0  0  0  0  0  0  0
    3.5224    0.0626    0.2583 O   0  0  0  0  0  0  0  0  0  0  0  0
    2.3151    0.6748    0.0337 C   0  0  1  0  0  0  0  0  0  0  0  0
    1.9630    1.2702   -1.2758 C   0  0  0  0  0  0  0  0  0  0  0  0
    1.2965    0.0112   -0.8040 C   0  0  2  0  0  0  0  0  0  0  0  0
   -0.1123    0.1070   -0.5311 N   0  0  0  0  0  0  0  0  0  0  0  0
   -1.0369   -0.9320   -0.7501 C   0  0  0  0  0  0  0  0  0  0  0  0
   -0.6450   -2.0185   -1.2089 O   0  0  0  0  0  0  0  0  0  0  0  0
   -2.4757   -0.7661   -0.4468 C   0  0  1  0  0  0  0  0  0  0  0  0
   -3.1958   -1.9147   -0.7400 O   0  0  0  0  0  0  0  0  0  0  0  0
   -2.6997   -0.3139    0.9818 C   0  0  0  0  0  0  0  0  0  0  0  0
   -4.0907   -0.0296    1.2088 N   0  0  0  0  0  0  0  0  0  0  0  0
    5.0456   -0.2466    1.5322 H   0  0  0  0  0  0  0  0  0  0  0  0
    4.3470    1.3843    1.6120 H   0  0  0  0  0  0  0  0  0  0  0  0
    3.4490    0.0368    2.3439 H   0  0  0  0  0  0  0  0  0  0  0  0
    1.9894    1.2818    0.9178 H   0  0  0  0  0  0  0  0  0  0  0  0
    2.6010    1.1468   -2.1669 H   0  0  0  0  0  0  0  0  0  0  0  0
    1.3421    2.1945   -1.3194 H   0  0  0  0  0  0  0  0  0  0  0  0
    1.6034   -0.9753   -1.2124 H   0  0  0  0  0  0  0  0  0  0  0  0
   -0.4790    1.0052   -0.1447 H   0  0  0  0  0  0  0  0  0  0  0  0
   -2.8604    0.0440   -1.1073 H   0  0  0  0  0  0  0  0  0  0  0  0
   -2.6719   -2.4960   -1.3499 H   0  0  0  0  0  0  0  0  0  0  0  0
   -2.3495   -1.0784    1.7088 H   0  0  0  0  0  0  0  0  0  0  0  0
   -2.1127    0.6009    1.1909 H   0  0  0  0  0  0  0  0  0  0  0  0
   -4.4134    0.8539    0.7962 H   0  0  0  0  0  0  0  0  0  0  0  0
   -4.4152   -0.2075    2.1691 H   0  0  0  0  0  0  0  0  0  0  0  0
  1  2  1  0
  2  3  1  0
  3  4  1  0
  4  5  1  0
  5  6  1  0
  6  7  1  0
  7  8  2  0
  7  9  1  0
  9 10  1  0
  9 11  1  0
 11 12  1  0
  5  3  1  0
  1 13  1  0
  1 14  1  0
  1 15  1  0
  3 16  1  1
  4 17  1  0
  4 18  1  0
  5 19  1  6
  6 20  1  0
  9 21  1  6
 10 22  1  0
 11 23  1  0
 11 24  1  0
 12 25  1  0
 12 26  1  0
M  END
$$$$

     RDKit          3D

 26 26  0  0  0  0  0  0  0  0999 V2000
    4.3075   -0.7468    1.6894 C   0  0  0  0  0  0  0  0  0  0  0  0
    3.4812   -1.0950    0.6238 O   0  0  0  0  0  0  0  0  0  0  0  0
    2.4943   -0.1416    0.3890 C   0  0  1  0  0  0  0  0  0  0  0  0
    2.2043    0.1305   -1.0365 C   0  0  0  0  0  0  0  0  0  0  0  0
    1.2006   -0.6054   -0.1427 C   0  0  2  0  0  0  0  0  0  0  0  0
   -0.0226    0.1099    0.0361 N   0  0  0  0  0  0  0  0  0  0  0  0
   -1.3099   -0.4794    0.0484 C   0  0  0  0  0  0  0  0  0  0  0  0
   -1.3934   -1.7092   -0.1069 O   0  0  0  0  0  0  0  0  0  0  0  0
   -2.5104    0.3666    0.2427 C   0  0  1  0  0  0  0  0  0  0  0  0
   -2.1413    1.7021    0.3920 O   0  0  0  0  0  0  0  0  0  0  0  0
   -3.4403    0.2946   -0.9587 C   0  0  0  0  0  0  0  0  0  0  0  0
   -3.8538   -1.1031   -1.1513 N   0  0  0  0  0  0  0  0  0  0  0  0
    5.0517   -1.5743    1.7842 H   0  0  0  0  0  0  0  0  0  0  0  0
    4.8867    0.1746    1.5070 H   0  0  0  0  0  0  0  0  0  0  0  0
    3.7406   -0.7319    2.6443 H   0  0  0  0  0  0  0  0  0  0  0  0
    2.5465    0.7195    1.0925 H   0  0  0  0  0  0  0  0  0  0  0  0
    2.0078    1.1768   -1.3034 H   0  0  0  0  0  0  0  0  0  0  0  0
    2.6027   -0.4885   -1.8503 H   0  0  0  0  0  0  0  0  0  0  0  0
    1.0886   -1.6938   -0.2775 H   0  0  0  0  0  0  0  0  0  0  0  0
    0.0280    1.1442    0.1680 H   0  0  0  0  0  0  0  0  0  0  0  0
   -3.0754    0.0911    1.1504 H   0  0  0  0  0  0  0  0  0  0  0  0
   -1.8984    2.0556   -0.5223 H   0  0  0  0  0  0  0  0  0  0  0  0
   -3.0019    0.7258   -1.8586 H   0  0  0  0  0  0  0  0  0  0  0  0
   -4.3767    0.8445   -0.7334 H   0  0  0  0  0  0  0  0  0  0  0  0
   -3.8326   -1.5500   -0.2169 H   0  0  0  0  0  0  0  0  0  0  0  0
   -4.7838   -1.0996   -1.6092 H   0  0  0  0  0  0  0  0  0  0  0  0
  1  2  1  0
  2  3  1  0
  3  4  1  0
  4  5  1  0
  5  6  1  0
  6  7  1  0
  7  8  2  0
  7  9  1  0
  9 10  1  0
  9 11  1  0
 11 12  1  0
  5  3  1  0
  1 13  1  0
  1 14  1  0
  1 15  1  0
  3 16  1  1
  4 17  1  0
  4 18  1  0
  5 19  1  6
  6 20  1  0
  9 21  1  1
 10 22  1  0
 11 23  1  0
 11 24  1  0
 12 25  1  0
 12 26  1  0
M  END
$$$$

     RDKit          3D

 26 26  0  0  0  0  0  0  0  0999 V2000
   -4.0495    1.2260    1.2819 C   0  0  0  0  0  0  0  0  0  0  0  0
   -3.4348    0.8579    0.1059 O   0  0  0  0  0  0  0  0  0  0  0  0
   -2.5246   -0.1677    0.2561 C   0  0  1  0  0  0  0  0  0  0  0  0
   -2.2868   -1.1102   -0.8735 C   0  0  0  0  0  0  0  0  0  0  0  0
   -1.3015   -0.0532   -0.6059 C   0  0  2  0  0  0  0  0  0  0  0  0
   -0.0517   -0.3400    0.0724 N   0  0  0  0  0  0  0  0  0  0  0  0
    1.1387    0.4115   -0.1706 C   0  0  0  0  0  0  0  0  0  0  0  0
    1.0444    1.3367   -1.0057 O   0  0  0  0  0  0  0  0  0  0  0  0
    2.3513    0.0509    0.5591 C   0  0  1  0  0  0  0  0  0  0  0  0
    2.1275   -1.0257    1.4160 O   0  0  0  0  0  0  0  0  0  0  0  0
    3.5148   -0.3085   -0.3128 C   0  0  0  0  0  0  0  0  0  0  0  0
    3.8789    0.6992   -1.2594 N   0  0  0  0  0  0  0  0  0  0  0  0
   -4.5882    0.3489    1.6843 H   0  0  0  0  0  0  0  0  0  0  0  0
   -3.3296    1.6277    2.0426 H   0  0  0  0  0  0  0  0  0  0  0  0
   -4.7867    2.0324    1.0192 H   0  0  0  0  0  0  0  0  0  0  0  0
   -2.4026   -0.5612    1.2834 H   0  0  0  0  0  0  0  0  0  0  0  0
   -2.9576   -0.9821   -1.7415 H   0  0  0  0  0  0  0  0  0  0  0  0
   -1.9751   -2.1514   -0.6595 H   0  0  0  0  0  0  0  0  0  0  0  0
   -1.2306    0.7953   -1.3180 H   0  0  0  0  0  0  0  0  0  0  0  0
   -0.0513   -1.1303    0.7583 H   0  0  0  0  0  0  0  0  0  0  0  0
    2.6274    0.9123    1.2176 H   0  0  0  0  0  0  0  0  0  0  0  0
    2.3049   -1.8479    0.8932 H   0  0  0  0  0  0  0  0  0  0  0  0
    4.3876   -0.4898    0.3497 H   0  0  0  0  0  0  0  0  0  0  0  0
    3.3030   -1.2942   -0.7985 H   0  0  0  0  0  0  0  0  0  0  0  0
    3.3919    0.5960   -2.1863 H   0  0  0  0  0  0  0  0  0  0  0  0
    4.9003    0.5673   -1.4781 H   0  0  0  0  0  0  0  0  0  0  0  0
  1  2  1  0
  2  3  1  0
  3  4  1  0
  4  5  1  0
  5  6  1  0
  6  7  1  0
  7  8  2  0
  7  9  1  0
  9 10  1  0
  9 11  1  0
 11 12  1  0
  5  3  1  0
  1 13  1  0
  1 14  1  0
  1 15  1  0
  3 16  1  1
  4 17  1  0
  4 18  1  0
  5 19  1  6
  6 20  1  0
  9 21  1  1
 10 22  1  0
 11 23  1  0
 11 24  1  0
 12 25  1  0
 12 26  1  0
M  END
$$$$
