
     RDKit          3D

 27 28  0  0  0  0  0  0  0  0999 V2000
   -3.3398    0.2651    1.2947 N   0  0  0  0  0  0  0  0  0  0  0  0
   -3.0334   -0.8399    0.4371 C   0  0  0  0  0  0  0  0  0  0  0  0
   -2.3429   -0.3675   -0.8244 C   0  0  2  0  0  0  0  0  0  0  0  0
   -2.0448   -1.4347   -1.6569 O   0  0  0  0  0  0  0  0  0  0  0  0
   -1.0847    0.3331   -0.4124 C   0  0  0  0  0  0  0  0  0  0  0  0
   -1.0919    1.3222    0.3343 O   0  0  0  0  0  0  0  0  0  0  0  0
    0.1559   -0.1476   -0.8897 N   0  0  0  0  0  0  0  0  0  0  0  0
    1.4142    0.4205   -0.5784 C   0  0  2  0  0  0  0  0  0  0  0  0
    2.6468   -0.2591   -1.1967 C   0  0  0  0  0  0  0  0  0  0  0  0
    3.6674    0.0867   -0.2813 O   0  0  0  0  0  0  0  0  0  0  0  0
    3.0853   -0.2259    0.9203 C   0  0  0  0  0  0  0  0  0  0  0  0
    1.8198    0.5974    0.9021 C   0  0  1  0  0  0  0  0  0  0  0  0
    1.6591    1.7409   -0.0279 C   0  0  0  0  0  0  0  0  0  0  0  0
   -3.4063    1.1765    0.7997 H   0  0  0  0  0  0  0  0  0  0  0  0
   -2.5893    0.3647    2.0121 H   0  0  0  0  0  0  0  0  0  0  0  0
   -2.3557   -1.5410    0.9883 H   0  0  0  0  0  0  0  0  0  0  0  0
   -3.9183   -1.4357    0.1411 H   0  0  0  0  0  0  0  0  0  0  0  0
   -3.0078    0.3664   -1.3173 H   0  0  0  0  0  0  0  0  0  0  0  0
   -2.8481   -2.0208   -1.7070 H   0  0  0  0  0  0  0  0  0  0  0  0
    0.1327   -0.9999   -1.5300 H   0  0  0  0  0  0  0  0  0  0  0  0
    2.8796    0.1820   -2.1839 H   0  0  0  0  0  0  0  0  0  0  0  0
    2.5176   -1.3381   -1.2383 H   0  0  0  0  0  0  0  0  0  0  0  0
    3.7027   -0.0838    1.8013 H   0  0  0  0  0  0  0  0  0  0  0  0
    2.7705   -1.3071    0.8576 H   0  0  0  0  0  0  0  0  0  0  0  0
    1.0622    0.4068    1.6633 H   0  0  0  0  0  0  0  0  0  0  0  0
    0.9126    2.4885    0.2580 H   0  0  0  0  0  0  0  0  0  0  0  0
    2.6365    2.2506   -0.2845 H   0  0  0  0  0  0  0  0  0  0  0  0
  1  2  1  0
  2  3  1  0
  3  4  1  0
  3  5  1  0
  5  6  2  0
  5  7  1  0
  8  7  1  1
  8  9  1  0
  9 10  1  0
 10 11  1  0
 11 12  1  0
 12 13  1  0
 12  8  1  0
 13  8  1  0
  1 14  1  0
  1 15  1  0
  2 16  1  0
  2 17  1  0
  3 18  1  6
  4 19  1  0
  7 20  1  0
  9 21  1  0
  9 22  1  0
 11 23  1  0
 11 24  1  0
 12 25  1  1
 13 26  1  0
 13 27  1  0
M  END
$$$$

     RDKit          3D

 27 28  0  0  0  0  0  0  0  0999 V2000
    4.4826   -0.1075    0.4228 N   0  0  0  0  0  0  0  0  0  0  0  0
    3.1095   -0.4778    0.5980 C   0  0  0  0  0  0  0  0  0  0  0  0
    2.3105    0.0563   -0.5557 C   0  0  2  0  0  0  0  0  0  0  0  0
    2.3572    1.4233   -0.6801 O   0  0  0  0  0  0  0  0  0  0  0  0
    0.8888   -0.4296   -0.3882 C   0  0  0  0  0  0  0  0  0  0  0  0
    0.6391   -1.6500   -0.2584 O   0  0  0  0  0  0  0  0  0  0  0  0
   -0.2017    0.4683   -0.3721 N   0  0  0  0  0  0  0  0  0  0  0  0
   -1.5749    0.1679   -0.2296 C   0  0  2  0  0  0  0  0  0  0  0  0
   -2.5056    1.3724   -0.2032 C   0  0  0  0  0  0  0  0  0  0  0  0
   -3.7317    0.9193    0.2474 O   0  0  0  0  0  0  0  0  0  0  0  0
   -3.5141   -0.1509    1.0885 C   0  0  0  0  0  0  0  0  0  0  0  0
   -2.2070   -0.7889    0.6522 C   0  0  1  0  0  0  0  0  0  0  0  0
   -2.1737   -1.1217   -0.8084 C   0  0  0  0  0  0  0  0  0  0  0  0
    4.9032   -0.6508   -0.3614 H   0  0  0  0  0  0  0  0  0  0  0  0
    4.5427    0.9220    0.2120 H   0  0  0  0  0  0  0  0  0  0  0  0
    3.0625   -1.5987    0.5256 H   0  0  0  0  0  0  0  0  0  0  0  0
    2.6958   -0.2167    1.5803 H   0  0  0  0  0  0  0  0  0  0  0  0
    2.7597   -0.3761   -1.4872 H   0  0  0  0  0  0  0  0  0  0  0  0
    2.7442    1.8811    0.1072 H   0  0  0  0  0  0  0  0  0  0  0  0
    0.0942    1.4921   -0.4850 H   0  0  0  0  0  0  0  0  0  0  0  0
   -2.0840    2.1326    0.4623 H   0  0  0  0  0  0  0  0  0  0  0  0
   -2.5571    1.7716   -1.2437 H   0  0  0  0  0  0  0  0  0  0  0  0
   -3.5381    0.0912    2.1491 H   0  0  0  0  0  0  0  0  0  0  0  0
   -4.3163   -0.9087    0.8661 H   0  0  0  0  0  0  0  0  0  0  0  0
   -1.6769   -1.4219    1.3836 H   0  0  0  0  0  0  0  0  0  0  0  0
   -3.0655   -0.9318   -1.4419 H   0  0  0  0  0  0  0  0  0  0  0  0
   -1.4436   -1.8670   -1.1110 H   0  0  0  0  0  0  0  0  0  0  0  0
  1  2  1  0
  2  3  1  0
  3  4  1  0
  3  5  1  0
  5  6  2  0
  5  7  1  0
  8  7  1  1
  8  9  1  0
  9 10  1  0
 10 11  1  0
 11 12  1  0
 12 13  1  0
 12  8  1  0
 13  8  1  0
  1 14  1  0
  1 15  1  0
  2 16  1  0
  2 17  1  0
  3 18  1  6
  4 19  1  0
  7 20  1  0
  9 21  1  0
  9 22  1  0
 11 23  1  0
 11 24  1  0
 12 25  1  1
 13 26  1  0
 13 27  1  0
M  END
$$$$

     RDKit          3D

 27 28  0  0  0  0  0  0  0  0999 V2000
    4.6116    0.1609   -0.2354 N   0  0  0  0  0  0  0  0  0  0  0  0
    3.3283   -0.5014   -0.3990 C   0  0  0  0  0  0  0  0  0  0  0  0
    2.2726    0.5611   -0.2105 C   0  0  2  0  0  0  0  0  0  0  0  0
    2.4155    1.0823    1.0501 O   0  0  0  0  0  0  0  0  0  0  0  0
    0.9206    0.1133   -0.5407 C   0  0  0  0  0  0  0  0  0  0  0  0
    0.7174   -0.3761   -1.6818 O   0  0  0  0  0  0  0  0  0  0  0  0
   -0.2016    0.1829    0.3267 N   0  0  0  0  0  0  0  0  0  0  0  0
   -1.5214   -0.2679   -0.0308 C   0  0  2  0  0  0  0  0  0  0  0  0
   -2.1755    0.4008   -1.2211 C   0  0  0  0  0  0  0  0  0  0  0  0
   -3.1211    1.2482   -0.6665 O   0  0  0  0  0  0  0  0  0  0  0  0
   -3.7326    0.4351    0.2815 C   0  0  0  0  0  0  0  0  0  0  0  0
   -2.6115   -0.3096    0.9693 C   0  0  1  0  0  0  0  0  0  0  0  0
   -2.0671   -1.5599    0.3985 C   0  0  0  0  0  0  0  0  0  0  0  0
    4.4893    0.9078    0.4864 H   0  0  0  0  0  0  0  0  0  0  0  0
    4.8276    0.6512   -1.1325 H   0  0  0  0  0  0  0  0  0  0  0  0
    3.2415   -1.2150    0.4556 H   0  0  0  0  0  0  0  0  0  0  0  0
    3.2767   -1.0010   -1.3811 H   0  0  0  0  0  0  0  0  0  0  0  0
    2.5356    1.3863   -0.9339 H   0  0  0  0  0  0  0  0  0  0  0  0
    2.0804    0.4318    1.7360 H   0  0  0  0  0  0  0  0  0  0  0  0
   -0.0313    0.5890    1.2726 H   0  0  0  0  0  0  0  0  0  0  0  0
   -1.3856    0.9854   -1.7740 H   0  0  0  0  0  0  0  0  0  0  0  0
   -2.5927   -0.3646   -1.8773 H   0  0  0  0  0  0  0  0  0  0  0  0
   -4.2511    1.0770    1.0191 H   0  0  0  0  0  0  0  0  0  0  0  0
   -4.4423   -0.2417   -0.2272 H   0  0  0  0  0  0  0  0  0  0  0  0
   -2.4417   -0.0808    2.0330 H   0  0  0  0  0  0  0  0  0  0  0  0
   -2.6853   -2.1155   -0.3446 H   0  0  0  0  0  0  0  0  0  0  0  0
   -1.4563   -2.1798    1.0717 H   0  0  0  0  0  0  0  0  0  0  0  0
  1  2  1  0
  2  3  1  0
  3  4  1  0
  3  5  1  0
  5  6  2  0
  5  7  1  0
  8  7  1  1
  8  9  1  0
  9 10  1  0
 10 11  1  0
 11 12  1  0
 12 13  1  0
 12  8  1  0
 13  8  1  0
  1 14  1  0
  1 15  1  0
  2 16  1  0
  2 17  1  0
  3 18  1  6
  4 19  1  0
  7 20  1  0
  9 21  1  0
  9 22  1  0
 11 23  1  0
 11 24  1  0
 12 25  1  1
 13 26  1  0
 13 27  1  0
M  END
$$$$

     RDKit          3D

 27 28  0  0  0  0  0  0  0  0999 V2000
    3.1080   -0.8357    0.7335 N   0  0  0  0  0  0  0  0  0  0  0  0
    3.0687    0.0246   -0.4425 C   0  0  0  0  0  0  0  0  0  0  0  0
    2.1848    1.1938   -0.1434 C   0  0  2  0  0  0  0  0  0  0  0  0
    2.7190    1.8759    0.9440 O   0  0  0  0  0  0  0  0  0  0  0  0
    0.7919    0.8804    0.1114 C   0  0  0  0  0  0  0  0  0  0  0  0
    0.2720    1.2355    1.2025 O   0  0  0  0  0  0  0  0  0  0  0  0
   -0.0743    0.1884   -0.7785 N   0  0  0  0  0  0  0  0  0  0  0  0
   -1.4336   -0.0791   -0.4490 C   0  0  2  0  0  0  0  0  0  0  0  0
   -2.3891    1.0539   -0.1631 C   0  0  0  0  0  0  0  0  0  0  0  0
   -3.5499    0.3418    0.2040 O   0  0  0  0  0  0  0  0  0  0  0  0
   -3.0577   -0.5132    1.2013 C   0  0  0  0  0  0  0  0  0  0  0  0
   -1.8440   -1.1295    0.5065 C   0  0  1  0  0  0  0  0  0  0  0  0
   -2.0358   -1.3577   -0.9540 C   0  0  0  0  0  0  0  0  0  0  0  0
    2.4616   -1.6356    0.5886 H   0  0  0  0  0  0  0  0  0  0  0  0
    4.0545   -1.1463    0.9767 H   0  0  0  0  0  0  0  0  0  0  0  0
    2.8246   -0.5135   -1.3614 H   0  0  0  0  0  0  0  0  0  0  0  0
    4.1059    0.4174   -0.5658 H   0  0  0  0  0  0  0  0  0  0  0  0
    2.2239    1.9181   -1.0078 H   0  0  0  0  0  0  0  0  0  0  0  0
    3.0773    1.2435    1.6212 H   0  0  0  0  0  0  0  0  0  0  0  0
    0.3460   -0.1144   -1.6937 H   0  0  0  0  0  0  0  0  0  0  0  0
   -2.5870    1.6908   -1.0261 H   0  0  0  0  0  0  0  0  0  0  0  0
   -2.1064    1.6455    0.7223 H   0  0  0  0  0  0  0  0  0  0  0  0
   -3.8282   -1.2800    1.4188 H   0  0  0  0  0  0  0  0  0  0  0  0
   -2.7809    0.0319    2.1153 H   0  0  0  0  0  0  0  0  0  0  0  0
   -1.1350   -1.7235    1.0881 H   0  0  0  0  0  0  0  0  0  0  0  0
   -1.3622   -2.0860   -1.4709 H   0  0  0  0  0  0  0  0  0  0  0  0
   -3.0541   -1.3268   -1.3948 H   0  0  0  0  0  0  0  0  0  0  0  0
  1  2  1  0
  2  3  1  0
  3  4  1  0
  3  5  1  0
  5  6  2  0
  5  7  1  0
  8  7  1  6
  8  9  1  0
  9 10  1  0
 10 11  1  0
 11 12  1  0
 12 13  1  0
 12  8  1  0
 13  8  1  0
  1 14  1  0
  1 15  1  0
  2 16  1  0
  2 17  1  0
  3 18  1  6
  4 19  1  0
  7 20  1  0
  9 21  1  0
  9 22  1  0
 11 23  1  0
 11 24  1  0
 12 25  1  1
 13 26  1  0
 13 27  1  0
M  END
$$$$

     RDKit          3D

 27 28  0  0  0  0  0  0  0  0999 V2000
    3.0676    1.1548   -0.4621 N   0  0  0  0  0  0  0  0  0  0  0  0
    3.3041   -0.0542    0.2566 C   0  0  0  0  0  0  0  0  0  0  0  0
    2.3125   -1.1401   -0.0307 C   0  0  2  0  0  0  0  0  0  0  0  0
    2.2746   -1.5218   -1.3494 O   0  0  0  0  0  0  0  0  0  0  0  0
    0.9686   -0.6732    0.4662 C   0  0  0  0  0  0  0  0  0  0  0  0
    0.9424   -0.3097    1.6703 O   0  0  0  0  0  0  0  0  0  0  0  0
   -0.1669   -0.6506   -0.3673 N   0  0  0  0  0  0  0  0  0  0  0  0
   -1.4550   -0.2131    0.0829 C   0  0  2  0  0  0  0  0  0  0  0  0
   -2.5912   -0.2138   -0.9160 C   0  0  0  0  0  0  0  0  0  0  0  0
   -3.5009    0.7294   -0.5148 O   0  0  0  0  0  0  0  0  0  0  0  0
   -2.8748    1.6487    0.3025 C   0  0  0  0  0  0  0  0  0  0  0  0
   -1.6912    0.9562    0.9248 C   0  0  1  0  0  0  0  0  0  0  0  0
   -1.9004   -0.3790    1.4957 C   0  0  0  0  0  0  0  0  0  0  0  0
    2.5252    1.0691   -1.3253 H   0  0  0  0  0  0  0  0  0  0  0  0
    2.8601    1.9766    0.1281 H   0  0  0  0  0  0  0  0  0  0  0  0
    4.3494   -0.3967    0.0835 H   0  0  0  0  0  0  0  0  0  0  0  0
    3.2491    0.1560    1.3579 H   0  0  0  0  0  0  0  0  0  0  0  0
    2.5954   -2.0154    0.6166 H   0  0  0  0  0  0  0  0  0  0  0  0
    2.3674   -2.5188   -1.4373 H   0  0  0  0  0  0  0  0  0  0  0  0
   -0.0571   -0.9704   -1.3629 H   0  0  0  0  0  0  0  0  0  0  0  0
   -3.0882   -1.2074   -0.8828 H   0  0  0  0  0  0  0  0  0  0  0  0
   -2.2429    0.0326   -1.9414 H   0  0  0  0  0  0  0  0  0  0  0  0
   -2.6144    2.5928   -0.1926 H   0  0  0  0  0  0  0  0  0  0  0  0
   -3.5803    1.8883    1.1493 H   0  0  0  0  0  0  0  0  0  0  0  0
   -0.8528    1.6133    1.2068 H   0  0  0  0  0  0  0  0  0  0  0  0
   -2.9739   -0.6454    1.6883 H   0  0  0  0  0  0  0  0  0  0  0  0
   -1.2265   -0.9081    2.1654 H   0  0  0  0  0  0  0  0  0  0  0  0
  1  2  1  0
  2  3  1  0
  3  4  1  0
  3  5  1  0
  5  6  2  0
  5  7  1  0
  8  7  1  6
  8  9  1  0
  9 10  1  0
 10 11  1  0
 11 12  1  0
 12 13  1  0
 12  8  1  0
 13  8  1  0
  1 14  1  0
  1 15  1  0
  2 16  1  0
  2 17  1  0
  3 18  1  1
  4 19  1  0
  7 20  1  0
  9 21  1  0
  9 22  1  0
 11 23  1  0
 11 24  1  0
 12 25  1  1
 13 26  1  0
 13 27  1  0
M  END
$$$$

     RDKit          3D

 27 28  0  0  0  0  0  0  0  0999 V2000
    2.8832    1.0030    0.7031 N   0  0  0  0  0  0  0  0  0  0  0  0
    2.8349   -0.4502    0.6321 C   0  0  0  0  0  0  0  0  0  0  0  0
    2.2645   -0.8709   -0.7063 C   0  0  2  0  0  0  0  0  0  0  0  0
    3.0386   -0.4062   -1.7659 O   0  0  0  0  0  0  0  0  0  0  0  0
    0.8879   -0.3456   -0.8153 C   0  0  0  0  0  0  0  0  0  0  0  0
    0.5492    0.4037   -1.7561 O   0  0  0  0  0  0  0  0  0  0  0  0
   -0.0936   -0.6787    0.1500 N   0  0  0  0  0  0  0  0  0  0  0  0
   -1.4444   -0.2376    0.1527 C   0  0  2  0  0  0  0  0  0  0  0  0
   -2.3753   -0.5502   -0.9869 C   0  0  0  0  0  0  0  0  0  0  0  0
   -3.5493    0.0908   -0.5805 O   0  0  0  0  0  0  0  0  0  0  0  0
   -3.1081    1.3700   -0.2323 C   0  0  0  0  0  0  0  0  0  0  0  0
   -1.8981    1.0545    0.6557 C   0  0  1  0  0  0  0  0  0  0  0  0
   -2.0755   -0.1060    1.5654 C   0  0  0  0  0  0  0  0  0  0  0  0
    3.3125    1.3596   -0.1797 H   0  0  0  0  0  0  0  0  0  0  0  0
    3.4109    1.2495    1.5599 H   0  0  0  0  0  0  0  0  0  0  0  0
    3.8138   -0.9235    0.7683 H   0  0  0  0  0  0  0  0  0  0  0  0
    2.1467   -0.8246    1.4151 H   0  0  0  0  0  0  0  0  0  0  0  0
    2.2838   -1.9788   -0.7457 H   0  0  0  0  0  0  0  0  0  0  0  0
    3.7700   -1.0277   -1.9726 H   0  0  0  0  0  0  0  0  0  0  0  0
    0.2258   -1.3176    0.9372 H   0  0  0  0  0  0  0  0  0  0  0  0
   -2.5252   -1.6371   -1.1153 H   0  0  0  0  0  0  0  0  0  0  0  0
   -2.0304   -0.0565   -1.8974 H   0  0  0  0  0  0  0  0  0  0  0  0
   -2.7728    1.9212   -1.1351 H   0  0  0  0  0  0  0  0  0  0  0  0
   -3.8801    1.9202    0.3454 H   0  0  0  0  0  0  0  0  0  0  0  0
   -1.2533    1.8717    0.9745 H   0  0  0  0  0  0  0  0  0  0  0  0
   -1.3891   -0.1697    2.4101 H   0  0  0  0  0  0  0  0  0  0  0  0
   -3.0265   -0.6632    1.6194 H   0  0  0  0  0  0  0  0  0  0  0  0
  1  2  1  0
  2  3  1  0
  3  4  1  0
  3  5  1  0
  5  6  2  0
  5  7  1  0
  8  7  1  1
  8  9  1  0
  9 10  1  0
 10 11  1  0
 11 12  1  0
 12 13  1  0
 12  8  1  0
 13  8  1  0
  1 14  1  0
  1 15  1  0
  2 16  1  0
  2 17  1  0
  3 18  1  1
  4 19  1  0
  7 20  1  0
  9 21  1  0
  9 22  1  0
 11 23  1  0
 11 24  1  0
 12 25  1  1
 13 26  1  0
 13 27  1  0
M  END
$$$$

     RDKit          3D

 27 28  0  0  0  0  0  0  0  0999 V2000
    4.4689   -0.3014    0.4553 N   0  0  0  0  0  0  0  0  0  0  0  0
    3.1136   -0.7656    0.2691 C   0  0  0  0  0  0  0  0  0  0  0  0
    2.2971    0.3820   -0.2836 C   0  0  2  0  0  0  0  0  0  0  0  0
    2.3306    1.4374    0.6261 O   0  0  0  0  0  0  0  0  0  0  0  0
    0.8819   -0.0409   -0.5119 C   0  0  0  0  0  0  0  0  0  0  0  0
    0.6503   -0.9696   -1.2929 O   0  0  0  0  0  0  0  0  0  0  0  0
   -0.1837    0.5956    0.1423 N   0  0  0  0  0  0  0  0  0  0  0  0
   -1.5621    0.2754   -0.0012 C   0  0  2  0  0  0  0  0  0  0  0  0
   -2.5671    1.0880    0.8049 C   0  0  0  0  0  0  0  0  0  0  0  0
   -3.6605    0.2904    1.0179 O   0  0  0  0  0  0  0  0  0  0  0  0
   -3.2973   -1.0244    0.8869 C   0  0  0  0  0  0  0  0  0  0  0  0
   -2.1315   -1.0460   -0.0751 C   0  0  1  0  0  0  0  0  0  0  0  0
   -2.1329   -0.2287   -1.2961 C   0  0  0  0  0  0  0  0  0  0  0  0
    4.5491    0.4239    1.1890 H   0  0  0  0  0  0  0  0  0  0  0  0
    4.7646    0.1301   -0.4539 H   0  0  0  0  0  0  0  0  0  0  0  0
    2.7168   -1.0381    1.2629 H   0  0  0  0  0  0  0  0  0  0  0  0
    3.0989   -1.6481   -0.3714 H   0  0  0  0  0  0  0  0  0  0  0  0
    2.7619    0.7604   -1.2174 H   0  0  0  0  0  0  0  0  0  0  0  0
    2.0885    2.2493    0.1178 H   0  0  0  0  0  0  0  0  0  0  0  0
    0.0788    1.3840    0.7993 H   0  0  0  0  0  0  0  0  0  0  0  0
   -2.8969    1.9130    0.1082 H   0  0  0  0  0  0  0  0  0  0  0  0
   -2.1303    1.5298    1.7002 H   0  0  0  0  0  0  0  0  0  0  0  0
   -4.1154   -1.6761    0.5854 H   0  0  0  0  0  0  0  0  0  0  0  0
   -2.9290   -1.4063    1.8739 H   0  0  0  0  0  0  0  0  0  0  0  0
   -1.5921   -1.9953   -0.1022 H   0  0  0  0  0  0  0  0  0  0  0  0
   -1.4744   -0.4862   -2.1217 H   0  0  0  0  0  0  0  0  0  0  0  0
   -3.1276    0.1674   -1.6541 H   0  0  0  0  0  0  0  0  0  0  0  0
  1  2  1  0
  2  3  1  0
  3  4  1  0
  3  5  1  0
  5  6  2  0
  5  7  1  0
  8  7  1  6
  8  9  1  0
  9 10  1  0
 10 11  1  0
 11 12  1  0
 12 13  1  0
 12  8  1  0
 13  8  1  0
  1 14  1  0
  1 15  1  0
  2 16  1  0
  2 17  1  0
  3 18  1  6
  4 19  1  0
  7 20  1  0
  9 21  1  0
  9 22  1  0
 11 23  1  0
 11 24  1  0
 12 25  1  6
 13 26  1  0
 13 27  1  0
M  END
$$$$

     RDKit          3D

 27 28  0  0  0  0  0  0  0  0999 V2000
    4.2349    0.8684    0.1144 N   0  0  0  0  0  0  0  0  0  0  0  0
    2.8499    0.7730   -0.2919 C   0  0  0  0  0  0  0  0  0  0  0  0
    2.3297   -0.5581    0.1840 C   0  0  2  0  0  0  0  0  0  0  0  0
    3.0876   -1.5565   -0.4012 O   0  0  0  0  0  0  0  0  0  0  0  0
    0.8822   -0.7355   -0.1683 C   0  0  0  0  0  0  0  0  0  0  0  0
    0.5540   -1.6953   -0.8968 O   0  0  0  0  0  0  0  0  0  0  0  0
   -0.1189    0.1461    0.2965 N   0  0  0  0  0  0  0  0  0  0  0  0
   -1.5218    0.0720    0.0181 C   0  0  2  0  0  0  0  0  0  0  0  0
   -2.3836    1.1310    0.6971 C   0  0  0  0  0  0  0  0  0  0  0  0
   -3.6655    0.6644    0.7228 O   0  0  0  0  0  0  0  0  0  0  0  0
   -3.6601   -0.7132    0.6514 C   0  0  0  0  0  0  0  0  0  0  0  0
   -2.3347   -1.1365    0.0921 C   0  0  1  0  0  0  0  0  0  0  0  0
   -2.0196   -0.4920   -1.2560 C   0  0  0  0  0  0  0  0  0  0  0  0
    4.3732    0.7159    1.1254 H   0  0  0  0  0  0  0  0  0  0  0  0
    4.8877    0.3700   -0.4968 H   0  0  0  0  0  0  0  0  0  0  0  0
    2.2540    1.6219    0.0689 H   0  0  0  0  0  0  0  0  0  0  0  0
    2.8384    0.8254   -1.4169 H   0  0  0  0  0  0  0  0  0  0  0  0
    2.4949   -0.6063    1.2785 H   0  0  0  0  0  0  0  0  0  0  0  0
    3.4195   -1.2779   -1.2983 H   0  0  0  0  0  0  0  0  0  0  0  0
    0.2721    0.9333    0.9183 H   0  0  0  0  0  0  0  0  0  0  0  0
   -2.3077    2.0788    0.1429 H   0  0  0  0  0  0  0  0  0  0  0  0
   -2.0393    1.2831    1.7305 H   0  0  0  0  0  0  0  0  0  0  0  0
   -4.4411   -1.0043   -0.0945 H   0  0  0  0  0  0  0  0  0  0  0  0
   -3.8990   -1.1996    1.6165 H   0  0  0  0  0  0  0  0  0  0  0  0
   -1.9240   -2.1291    0.3151 H   0  0  0  0  0  0  0  0  0  0  0  0
   -1.3481   -1.0561   -1.9067 H   0  0  0  0  0  0  0  0  0  0  0  0
   -2.8147    0.1192   -1.7451 H   0  0  0  0  0  0  0  0  0  0  0  0
  1  2  1  0
  2  3  1  0
  3  4  1  0
  3  5  1  0
  5  6  2  0
  5  7  1  0
  8  7  1  6
  8  9  1  0
  9 10  1  0
 10 11  1  0
 11 12  1  0
 12 13  1  0
 12  8  1  0
 13  8  1  0
  1 14  1  0
  1 15  1  0
  2 16  1  0
  2 17  1  0
  3 18  1  1
  4 19  1  0
  7 20  1  0
  9 21  1  0
  9 22  1  0
 11 23  1  0
 11 24  1  0
 12 25  1  6
 13 26  1  0
 13 27  1  0
M  END
$$$$
