
     RDKit          3D

 27 27  0  0  0  0  0  0  0  0999 V2000
    3.9744   -0.8107   -0.3841 N   0  0  0  0  0  0  0  0  0  0  0  0
    2.6891   -0.6783    0.2340 C   0  0  0  0  0  0  0  0  0  0  0  0
    1.9600   -1.6914    0.4171 O   0  0  0  0  0  0  0  0  0  0  0  0
    2.2100    0.6512    0.6620 C   0  0  1  0  0  0  0  0  0  0  0  0
    3.1628    1.6957    0.3796 N   0  0  0  0  0  0  0  0  0  0  0  0
    0.8743    1.0071    0.0435 C   0  0  0  0  0  0  0  0  0  0  0  0
   -0.1405    0.0612    0.3929 N   0  0  0  0  0  0  0  0  0  0  0  0
   -1.4577    0.4843   -0.0030 C   0  0  0  0  0  0  0  0  0  0  0  0
   -2.4361   -0.5623    0.4509 C   0  0  1  0  0  0  0  0  0  0  0  0
   -3.7969   -0.5676   -0.1392 C   0  0  0  0  0  0  0  0  0  0  0  0
   -3.0899   -1.4160   -1.1612 C   0  0  0  0  0  0  0  0  0  0  0  0
   -2.1784   -1.7857   -0.1468 O   0  0  0  0  0  0  0  0  0  0  0  0
    4.6557   -0.0284   -0.2618 H   0  0  0  0  0  0  0  0  0  0  0  0
    4.2140   -1.6486   -0.9256 H   0  0  0  0  0  0  0  0  0  0  0  0
    2.0789    0.5972    1.7729 H   0  0  0  0  0  0  0  0  0  0  0  0
    3.5917    2.0593    1.2741 H   0  0  0  0  0  0  0  0  0  0  0  0
    2.6825    2.5023   -0.1057 H   0  0  0  0  0  0  0  0  0  0  0  0
    0.5946    2.0537    0.2517 H   0  0  0  0  0  0  0  0  0  0  0  0
    0.9882    0.9438   -1.0792 H   0  0  0  0  0  0  0  0  0  0  0  0
   -0.0775   -0.2517    1.3697 H   0  0  0  0  0  0  0  0  0  0  0  0
   -1.6790    1.4793    0.4326 H   0  0  0  0  0  0  0  0  0  0  0  0
   -1.4647    0.5542   -1.1003 H   0  0  0  0  0  0  0  0  0  0  0  0
   -2.3977   -0.6818    1.5656 H   0  0  0  0  0  0  0  0  0  0  0  0
   -4.4939   -1.1848    0.4624 H   0  0  0  0  0  0  0  0  0  0  0  0
   -4.2180    0.3954   -0.4914 H   0  0  0  0  0  0  0  0  0  0  0  0
   -2.6238   -0.8550   -1.9922 H   0  0  0  0  0  0  0  0  0  0  0  0
   -3.6222   -2.3224   -1.4877 H   0  0  0  0  0  0  0  0  0  0  0  0
  1  2  1  0
  2  3  2  0
  2  4  1  0
  4  5  1  0
  4  6  1  0
  6  7  1  0
  7  8  1  0
  8  9  1  0
  9 10  1  0
 10 11  1  0
 11 12  1  0
 12  9  1  0
  1 13  1  0
  1 14  1  0
  4 15  1  1
  5 16  1  0
  5 17  1  0
  6 18  1  0
  6 19  1  0
  7 20  1  0
  8 21  1  0
  8 22  1  0
  9 23  1  1
 10 24  1  0
 10 25  1  0
 11 26  1  0
 11 27  1  0
M  END
$$$$

     RDKit          3D

 27 27  0  0  0  0  0  0  0  0999 V2000
    4.3721    0.6818    0.0029 N   0  0  0  0  0  0  0  0  0  0  0  0
    3.0082    1.0514   -0.1190 C   0  0  0  0  0  0  0  0  0  0  0  0
    2.7193    2.2326    0.2488 O   0  0  0  0  0  0  0  0  0  0  0  0
    2.0133    0.1096   -0.6407 C   0  0  1  0  0  0  0  0  0  0  0  0
    2.6467   -1.1336   -0.9584 N   0  0  0  0  0  0  0  0  0  0  0  0
    0.8528   -0.1276    0.3051 C   0  0  0  0  0  0  0  0  0  0  0  0
   -0.0376   -1.0722   -0.3440 N   0  0  0  0  0  0  0  0  0  0  0  0
   -1.1845   -1.3903    0.4430 C   0  0  0  0  0  0  0  0  0  0  0  0
   -2.1583   -0.2467    0.6162 C   0  0  1  0  0  0  0  0  0  0  0  0
   -3.0565    0.0264   -0.5335 C   0  0  0  0  0  0  0  0  0  0  0  0
   -4.0682    0.1238    0.5711 C   0  0  0  0  0  0  0  0  0  0  0  0
   -3.2457   -0.6415    1.3859 O   0  0  0  0  0  0  0  0  0  0  0  0
    4.9490    0.6554   -0.8615 H   0  0  0  0  0  0  0  0  0  0  0  0
    4.7429    0.4521    0.9470 H   0  0  0  0  0  0  0  0  0  0  0  0
    1.5839    0.5347   -1.5807 H   0  0  0  0  0  0  0  0  0  0  0  0
    2.1094   -1.7828   -1.5358 H   0  0  0  0  0  0  0  0  0  0  0  0
    3.2016   -1.5170   -0.1889 H   0  0  0  0  0  0  0  0  0  0  0  0
    0.3350    0.8406    0.5119 H   0  0  0  0  0  0  0  0  0  0  0  0
    1.2365   -0.5228    1.2721 H   0  0  0  0  0  0  0  0  0  0  0  0
   -0.3385   -0.6362   -1.2442 H   0  0  0  0  0  0  0  0  0  0  0  0
   -0.8473   -1.6631    1.4873 H   0  0  0  0  0  0  0  0  0  0  0  0
   -1.7065   -2.2828    0.0498 H   0  0  0  0  0  0  0  0  0  0  0  0
   -1.7013    0.6563    1.0290 H   0  0  0  0  0  0  0  0  0  0  0  0
   -3.2653   -0.8098   -1.2298 H   0  0  0  0  0  0  0  0  0  0  0  0
   -2.9358    1.0167   -1.0294 H   0  0  0  0  0  0  0  0  0  0  0  0
   -5.0384   -0.3796    0.3706 H   0  0  0  0  0  0  0  0  0  0  0  0
   -4.1868    1.1481    1.0253 H   0  0  0  0  0  0  0  0  0  0  0  0
  1  2  1  0
  2  3  2  0
  2  4  1  0
  4  5  1  0
  4  6  1  0
  6  7  1  0
  7  8  1  0
  8  9  1  0
  9 10  1  0
 10 11  1  0
 11 12  1  0
 12  9  1  0
  1 13  1  0
  1 14  1  0
  4 15  1  6
  5 16  1  0
  5 17  1  0
  6 18  1  0
  6 19  1  0
  7 20  1  0
  8 21  1  0
  8 22  1  0
  9 23  1  1
 10 24  1  0
 10 25  1  0
 11 26  1  0
 11 27  1  0
M  END
$$$$

     RDKit          3D

 27 27  0  0  0  0  0  0  0  0999 V2000
   -4.2945   -0.3658    0.5591 N   0  0  0  0  0  0  0  0  0  0  0  0
   -3.4297   -0.3813   -0.5568 C   0  0  0  0  0  0  0  0  0  0  0  0
   -3.8266   -1.0085   -1.5742 O   0  0  0  0  0  0  0  0  0  0  0  0
   -2.1488    0.3167   -0.4715 C   0  0  1  0  0  0  0  0  0  0  0  0
   -1.9888    0.9377    0.8265 N   0  0  0  0  0  0  0  0  0  0  0  0
   -0.9542   -0.6020   -0.7017 C   0  0  0  0  0  0  0  0  0  0  0  0
    0.2290    0.2660   -0.5789 N   0  0  0  0  0  0  0  0  0  0  0  0
    1.4453   -0.4938   -0.7789 C   0  0  0  0  0  0  0  0  0  0  0  0
    2.5994    0.4749   -0.6348 C   0  0  1  0  0  0  0  0  0  0  0  0
    2.9474    0.7860    0.8213 C   0  0  0  0  0  0  0  0  0  0  0  0
    3.8950   -0.3372    0.5539 C   0  0  0  0  0  0  0  0  0  0  0  0
    3.8583   -0.0610   -0.7923 O   0  0  0  0  0  0  0  0  0  0  0  0
   -5.3147   -0.2400    0.4560 H   0  0  0  0  0  0  0  0  0  0  0  0
   -3.8953   -0.4836    1.5051 H   0  0  0  0  0  0  0  0  0  0  0  0
   -2.1294    1.1004   -1.2749 H   0  0  0  0  0  0  0  0  0  0  0  0
   -1.4899    0.2807    1.4704 H   0  0  0  0  0  0  0  0  0  0  0  0
   -2.8726    1.2880    1.2325 H   0  0  0  0  0  0  0  0  0  0  0  0
   -1.0200   -1.0362   -1.7179 H   0  0  0  0  0  0  0  0  0  0  0  0
   -0.9317   -1.3855    0.0811 H   0  0  0  0  0  0  0  0  0  0  0  0
    0.1742    1.0354   -1.2745 H   0  0  0  0  0  0  0  0  0  0  0  0
    1.4906   -1.2368    0.0570 H   0  0  0  0  0  0  0  0  0  0  0  0
    1.4692   -1.0264   -1.7363 H   0  0  0  0  0  0  0  0  0  0  0  0
    2.4105    1.4329   -1.1807 H   0  0  0  0  0  0  0  0  0  0  0  0
    3.3728    1.7895    0.9543 H   0  0  0  0  0  0  0  0  0  0  0  0
    2.0995    0.5384    1.5229 H   0  0  0  0  0  0  0  0  0  0  0  0
    3.4212   -1.3146    0.7675 H   0  0  0  0  0  0  0  0  0  0  0  0
    4.8839   -0.2738    1.0460 H   0  0  0  0  0  0  0  0  0  0  0  0
  1  2  1  0
  2  3  2  0
  2  4  1  0
  4  5  1  0
  4  6  1  0
  6  7  1  0
  7  8  1  0
  8  9  1  0
  9 10  1  0
 10 11  1  0
 11 12  1  0
 12  9  1  0
  1 13  1  0
  1 14  1  0
  4 15  1  6
  5 16  1  0
  5 17  1  0
  6 18  1  0
  6 19  1  0
  7 20  1  0
  8 21  1  0
  8 22  1  0
  9 23  1  6
 10 24  1  0
 10 25  1  0
 11 26  1  0
 11 27  1  0
M  END
$$$$

     RDKit          3D

 27 27  0  0  0  0  0  0  0  0999 V2000
    3.0574    2.0090    0.1216 N   0  0  0  0  0  0  0  0  0  0  0  0
    3.2101    0.6059    0.0576 C   0  0  0  0  0  0  0  0  0  0  0  0
    4.2990    0.1024    0.5136 O   0  0  0  0  0  0  0  0  0  0  0  0
    2.2218   -0.3240   -0.4876 C   0  0  1  0  0  0  0  0  0  0  0  0
    2.6401   -1.6868   -0.2722 N   0  0  0  0  0  0  0  0  0  0  0  0
    0.8388   -0.1786    0.1795 C   0  0  0  0  0  0  0  0  0  0  0  0
    0.0110   -1.1559   -0.4682 N   0  0  0  0  0  0  0  0  0  0  0  0
   -1.3401   -1.2405   -0.0738 C   0  0  0  0  0  0  0  0  0  0  0  0
   -2.1276   -0.0527   -0.5098 C   0  0  1  0  0  0  0  0  0  0  0  0
   -3.4804   -0.0129    0.1613 C   0  0  0  0  0  0  0  0  0  0  0  0
   -2.9970    1.3502    0.5702 C   0  0  0  0  0  0  0  0  0  0  0  0
   -1.7611    1.1854   -0.0389 O   0  0  0  0  0  0  0  0  0  0  0  0
    2.4181    2.5350   -0.5267 H   0  0  0  0  0  0  0  0  0  0  0  0
    3.6089    2.5318    0.8495 H   0  0  0  0  0  0  0  0  0  0  0  0
    2.0222   -0.1481   -1.5732 H   0  0  0  0  0  0  0  0  0  0  0  0
    1.9408   -2.3556   -0.6498 H   0  0  0  0  0  0  0  0  0  0  0  0
    3.6092   -1.8860   -0.5704 H   0  0  0  0  0  0  0  0  0  0  0  0
    0.9887   -0.4140    1.2622 H   0  0  0  0  0  0  0  0  0  0  0  0
    0.4543    0.8362    0.0135 H   0  0  0  0  0  0  0  0  0  0  0  0
    0.1379   -1.1456   -1.4909 H   0  0  0  0  0  0  0  0  0  0  0  0
   -1.4166   -1.3116    1.0360 H   0  0  0  0  0  0  0  0  0  0  0  0
   -1.7938   -2.1448   -0.5512 H   0  0  0  0  0  0  0  0  0  0  0  0
   -2.2170    0.0145   -1.6311 H   0  0  0  0  0  0  0  0  0  0  0  0
   -4.2986   -0.0035   -0.5680 H   0  0  0  0  0  0  0  0  0  0  0  0
   -3.6139   -0.7486    0.9483 H   0  0  0  0  0  0  0  0  0  0  0  0
   -3.5565    2.1931    0.1519 H   0  0  0  0  0  0  0  0  0  0  0  0
   -2.8559    1.4459    1.6665 H   0  0  0  0  0  0  0  0  0  0  0  0
  1  2  1  0
  2  3  2  0
  2  4  1  0
  4  5  1  0
  4  6  1  0
  6  7  1  0
  7  8  1  0
  8  9  1  0
  9 10  1  0
 10 11  1  0
 11 12  1  0
 12  9  1  0
  1 13  1  0
  1 14  1  0
  4 15  1  6
  5 16  1  0
  5 17  1  0
  6 18  1  0
  6 19  1  0
  7 20  1  0
  8 21  1  0
  8 22  1  0
  9 23  1  6
 10 24  1  0
 10 25  1  0
 11 26  1  0
 11 27  1  0
M  END
$$$$

     RDKit          3D

 27 27  0  0  0  0  0  0  0  0999 V2000
   -3.1048    1.9790    0.2448 N   0  0  0  0  0  0  0  0  0  0  0  0
   -3.2089    0.5776    0.0405 C   0  0  0  0  0  0  0  0  0  0  0  0
   -4.2629    0.1592   -0.5474 O   0  0  0  0  0  0  0  0  0  0  0  0
   -2.2227   -0.4182    0.4394 C   0  0  1  0  0  0  0  0  0  0  0  0
   -2.6290   -1.7266   -0.0125 N   0  0  0  0  0  0  0  0  0  0  0  0
   -0.8282   -0.1630   -0.1207 C   0  0  0  0  0  0  0  0  0  0  0  0
   -0.0132   -1.2440    0.3721 N   0  0  0  0  0  0  0  0  0  0  0  0
    1.3649   -1.1994    0.0207 C   0  0  0  0  0  0  0  0  0  0  0  0
    2.1775   -0.1230    0.6637 C   0  0  1  0  0  0  0  0  0  0  0  0
    3.4428    0.1436   -0.1573 C   0  0  0  0  0  0  0  0  0  0  0  0
    3.1263    1.5346    0.2996 C   0  0  0  0  0  0  0  0  0  0  0  0
    1.8016    1.1771    0.4254 O   0  0  0  0  0  0  0  0  0  0  0  0
   -2.2991    2.5472   -0.0629 H   0  0  0  0  0  0  0  0  0  0  0  0
   -3.8774    2.4917    0.7345 H   0  0  0  0  0  0  0  0  0  0  0  0
   -2.0799   -0.4533    1.5506 H   0  0  0  0  0  0  0  0  0  0  0  0
   -3.6190   -1.9091    0.2392 H   0  0  0  0  0  0  0  0  0  0  0  0
   -2.4699   -1.7703   -1.0405 H   0  0  0  0  0  0  0  0  0  0  0  0
   -0.4211    0.7872    0.2122 H   0  0  0  0  0  0  0  0  0  0  0  0
   -0.8502   -0.1477   -1.2433 H   0  0  0  0  0  0  0  0  0  0  0  0
   -0.3825   -2.1723    0.0564 H   0  0  0  0  0  0  0  0  0  0  0  0
    1.5488   -1.2096   -1.0795 H   0  0  0  0  0  0  0  0  0  0  0  0
    1.8145   -2.1782    0.3704 H   0  0  0  0  0  0  0  0  0  0  0  0
    2.4296   -0.3607    1.7258 H   0  0  0  0  0  0  0  0  0  0  0  0
    4.3346   -0.3218    0.3166 H   0  0  0  0  0  0  0  0  0  0  0  0
    3.2981   -0.0625   -1.2225 H   0  0  0  0  0  0  0  0  0  0  0  0
    3.6195    1.7753    1.2719 H   0  0  0  0  0  0  0  0  0  0  0  0
    3.3106    2.2875   -0.4886 H   0  0  0  0  0  0  0  0  0  0  0  0
  1  2  1  0
  2  3  2  0
  2  4  1  0
  4  5  1  0
  4  6  1  0
  6  7  1  0
  7  8  1  0
  8  9  1  0
  9 10  1  0
 10 11  1  0
 11 12  1  0
 12  9  1  0
  1 13  1  0
  1 14  1  0
  4 15  1  1
  5 16  1  0
  5 17  1  0
  6 18  1  0
  6 19  1  0
  7 20  1  0
  8 21  1  0
  8 22  1  0
  9 23  1  1
 10 24  1  0
 10 25  1  0
 11 26  1  0
 11 27  1  0
M  END
$$$$

     RDKit          3D

 27 27  0  0  0  0  0  0  0  0999 V2000
    4.1278   -0.4481    0.4685 N   0  0  0  0  0  0  0  0  0  0  0  0
    3.2385    0.6290    0.2760 C   0  0  0  0  0  0  0  0  0  0  0  0
    3.6151    1.7546   -0.0415 O   0  0  0  0  0  0  0  0  0  0  0  0
    1.7513    0.3981    0.4671 C   0  0  1  0  0  0  0  0  0  0  0  0
    1.0304    1.5808    0.1478 N   0  0  0  0  0  0  0  0  0  0  0  0
    1.3170   -0.7839   -0.3068 C   0  0  0  0  0  0  0  0  0  0  0  0
   -0.0528   -1.1297   -0.2254 N   0  0  0  0  0  0  0  0  0  0  0  0
   -0.9146   -0.2500   -0.9173 C   0  0  0  0  0  0  0  0  0  0  0  0
   -2.3448   -0.8091   -0.8299 C   0  0  1  0  0  0  0  0  0  0  0  0
   -3.0634   -0.4923    0.4440 C   0  0  0  0  0  0  0  0  0  0  0  0
   -3.5887    0.6480   -0.3528 C   0  0  0  0  0  0  0  0  0  0  0  0
   -3.2660   -0.0133   -1.5126 O   0  0  0  0  0  0  0  0  0  0  0  0
    4.0641   -1.3622   -0.0349 H   0  0  0  0  0  0  0  0  0  0  0  0
    4.9218   -0.3667    1.1605 H   0  0  0  0  0  0  0  0  0  0  0  0
    1.6631    0.2061    1.5806 H   0  0  0  0  0  0  0  0  0  0  0  0
    1.3974    2.1511   -0.6113 H   0  0  0  0  0  0  0  0  0  0  0  0
    0.9236    2.1777    0.9998 H   0  0  0  0  0  0  0  0  0  0  0  0
    1.6064   -0.6382   -1.3873 H   0  0  0  0  0  0  0  0  0  0  0  0
    1.9211   -1.6870    0.0290 H   0  0  0  0  0  0  0  0  0  0  0  0
   -0.3825   -1.2759    0.7754 H   0  0  0  0  0  0  0  0  0  0  0  0
   -0.9158    0.7787   -0.5298 H   0  0  0  0  0  0  0  0  0  0  0  0
   -0.6755   -0.1958   -1.9864 H   0  0  0  0  0  0  0  0  0  0  0  0
   -2.3177   -1.8740   -1.1092 H   0  0  0  0  0  0  0  0  0  0  0  0
   -3.8777   -1.2263    0.6427 H   0  0  0  0  0  0  0  0  0  0  0  0
   -2.4535   -0.2406    1.3250 H   0  0  0  0  0  0  0  0  0  0  0  0
   -4.6834    0.8580   -0.2126 H   0  0  0  0  0  0  0  0  0  0  0  0
   -3.0413    1.6108   -0.2984 H   0  0  0  0  0  0  0  0  0  0  0  0
  1  2  1  0
  2  3  2  0
  2  4  1  0
  4  5  1  0
  4  6  1  0
  6  7  1  0
  7  8  1  0
  8  9  1  0
  9 10  1  0
 10 11  1  0
 11 12  1  0
 12  9  1  0
  1 13  1  0
  1 14  1  0
  4 15  1  1
  5 16  1  0
  5 17  1  0
  6 18  1  0
  6 19  1  0
  7 20  1  0
  8 21  1  0
  8 22  1  0
  9 23  1  6
 10 24  1  0
 10 25  1  0
 11 26  1  0
 11 27  1  0
M  END
$$$$

     RDKit          3D

 27 27  0  0  0  0  0  0  0  0999 V2000
    4.1037   -0.4318   -0.8409 N   0  0  0  0  0  0  0  0  0  0  0  0
    2.7602   -0.6944   -0.4162 C   0  0  0  0  0  0  0  0  0  0  0  0
    2.3775   -1.8781   -0.2504 O   0  0  0  0  0  0  0  0  0  0  0  0
    1.8005    0.4054   -0.1645 C   0  0  1  0  0  0  0  0  0  0  0  0
    2.4336    1.6973   -0.4089 N   0  0  0  0  0  0  0  0  0  0  0  0
    0.5884    0.3229   -1.0512 C   0  0  0  0  0  0  0  0  0  0  0  0
   -0.0880   -0.9132   -0.8322 N   0  0  0  0  0  0  0  0  0  0  0  0
   -0.6952   -0.9769    0.4612 C   0  0  0  0  0  0  0  0  0  0  0  0
   -1.8418   -0.0068    0.5191 C   0  0  1  0  0  0  0  0  0  0  0  0
   -3.1487   -0.5316   -0.0627 C   0  0  0  0  0  0  0  0  0  0  0  0
   -3.6500    0.3599    1.0528 C   0  0  0  0  0  0  0  0  0  0  0  0
   -2.5126   -0.0074    1.7720 O   0  0  0  0  0  0  0  0  0  0  0  0
    4.3624   -0.3709   -1.8620 H   0  0  0  0  0  0  0  0  0  0  0  0
    4.8205   -0.3023   -0.1060 H   0  0  0  0  0  0  0  0  0  0  0  0
    1.5229    0.4007    0.8956 H   0  0  0  0  0  0  0  0  0  0  0  0
    2.9828    2.0214    0.4189 H   0  0  0  0  0  0  0  0  0  0  0  0
    1.7383    2.4103   -0.7220 H   0  0  0  0  0  0  0  0  0  0  0  0
    0.8703    0.4667   -2.1293 H   0  0  0  0  0  0  0  0  0  0  0  0
   -0.0221    1.2391   -0.8258 H   0  0  0  0  0  0  0  0  0  0  0  0
   -0.7927   -1.0799   -1.5683 H   0  0  0  0  0  0  0  0  0  0  0  0
    0.0116   -0.8016    1.2961 H   0  0  0  0  0  0  0  0  0  0  0  0
   -1.1487   -2.0073    0.6059 H   0  0  0  0  0  0  0  0  0  0  0  0
   -1.6593    1.0318    0.2562 H   0  0  0  0  0  0  0  0  0  0  0  0
   -3.3661   -0.1631   -1.0821 H   0  0  0  0  0  0  0  0  0  0  0  0
   -3.2280   -1.6030    0.1086 H   0  0  0  0  0  0  0  0  0  0  0  0
   -4.6104   -0.0013    1.4671 H   0  0  0  0  0  0  0  0  0  0  0  0
   -3.6090    1.4138    0.7649 H   0  0  0  0  0  0  0  0  0  0  0  0
  1  2  1  0
  2  3  2  0
  2  4  1  0
  4  5  1  0
  4  6  1  0
  6  7  1  0
  7  8  1  0
  8  9  1  0
  9 10  1  0
 10 11  1  0
 11 12  1  0
 12  9  1  0
  1 13  1  0
  1 14  1  0
  4 15  1  1
  5 16  1  0
  5 17  1  0
  6 18  1  0
  6 19  1  0
  7 20  1  0
  8 21  1  0
  8 22  1  0
  9 23  1  6
 10 24  1  0
 10 25  1  0
 11 26  1  0
 11 27  1  0
M  END
$$$$

     RDKit          3D

 27 27  0  0  0  0  0  0  0  0999 V2000
   -3.0753   -0.1401    2.1669 N   0  0  0  0  0  0  0  0  0  0  0  0
   -2.2018   -0.5703    1.1656 C   0  0  0  0  0  0  0  0  0  0  0  0
   -1.1941   -1.2916    1.5105 O   0  0  0  0  0  0  0  0  0  0  0  0
   -2.3180   -0.2761   -0.2637 C   0  0  1  0  0  0  0  0  0  0  0  0
   -3.4996    0.4959   -0.5832 N   0  0  0  0  0  0  0  0  0  0  0  0
   -1.1427    0.6068   -0.7137 C   0  0  0  0  0  0  0  0  0  0  0  0
    0.1227   -0.0637   -0.4522 N   0  0  0  0  0  0  0  0  0  0  0  0
    1.2033    0.7621   -0.9727 C   0  0  0  0  0  0  0  0  0  0  0  0
    2.5549    0.2257   -0.6180 C   0  0  1  0  0  0  0  0  0  0  0  0
    2.6962   -0.2761    0.8007 C   0  0  0  0  0  0  0  0  0  0  0  0
    3.7171   -1.1419    0.0551 C   0  0  0  0  0  0  0  0  0  0  0  0
    2.8500   -1.0606   -1.0599 O   0  0  0  0  0  0  0  0  0  0  0  0
   -2.9753   -0.4779    3.1556 H   0  0  0  0  0  0  0  0  0  0  0  0
   -3.8453    0.5163    1.9845 H   0  0  0  0  0  0  0  0  0  0  0  0
   -2.3555   -1.2049   -0.8522 H   0  0  0  0  0  0  0  0  0  0  0  0
   -3.4317    1.5080   -0.3389 H   0  0  0  0  0  0  0  0  0  0  0  0
   -3.9178    0.2890   -1.4945 H   0  0  0  0  0  0  0  0  0  0  0  0
   -1.2009    0.8207   -1.8009 H   0  0  0  0  0  0  0  0  0  0  0  0
   -1.1973    1.5830   -0.1891 H   0  0  0  0  0  0  0  0  0  0  0  0
    0.1588   -1.0025   -0.8739 H   0  0  0  0  0  0  0  0  0  0  0  0
    1.0963    0.8159   -2.0908 H   0  0  0  0  0  0  0  0  0  0  0  0
    1.0737    1.7772   -0.5532 H   0  0  0  0  0  0  0  0  0  0  0  0
    3.3876    0.9256   -0.8883 H   0  0  0  0  0  0  0  0  0  0  0  0
    3.1092    0.4304    1.5277 H   0  0  0  0  0  0  0  0  0  0  0  0
    1.8562   -0.8855    1.1029 H   0  0  0  0  0  0  0  0  0  0  0  0
    3.8712   -2.1401    0.4614 H   0  0  0  0  0  0  0  0  0  0  0  0
    4.6581   -0.5609   -0.1858 H   0  0  0  0  0  0  0  0  0  0  0  0
  1  2  1  0
  2  3  2  0
  2  4  1  0
  4  5  1  0
  4  6  1  0
  6  7  1  0
  7  8  1  0
  8  9  1  0
  9 10  1  0
 10 11  1  0
 11 12  1  0
 12  9  1  0
  1 13  1  0
  1 14  1  0
  4 15  1  6
  5 16  1  0
  5 17  1  0
  6 18  1  0
  6 19  1  0
  7 20  1  0
  8 21  1  0
  8 22  1  0
  9 23  1  6
 10 24  1  0
 10 25  1  0
 11 26  1  0
 11 27  1  0
M  END
$$$$
