
     RDKit          3D

 24 25  0  0  0  0  0  0  0  0999 V2000
    3.5157   -0.1834    0.4235 N   0  0  0  0  0  0  0  0  0  0  0  0
    2.3135   -0.1415   -0.3531 C   0  0  1  0  0  0  0  0  0  0  0  0
    1.3242   -1.2583   -0.1100 C   0  0  0  0  0  0  0  0  0  0  0  0
    0.3246   -0.2130   -0.0330 N   0  0  0  0  0  0  0  0  0  0  0  0
   -1.0844   -0.0859   -0.1602 C   0  0  0  0  0  0  0  0  0  0  0  0
   -1.5936    0.8260   -1.2315 C   0  0  0  0  0  0  0  0  0  0  0  0
   -1.1284    2.1298   -1.0189 O   0  0  0  0  0  0  0  0  0  0  0  0
   -1.9185   -1.3064    0.0017 C   0  0  0  0  0  0  0  0  0  0  0  0
   -2.8868   -0.4769    0.6198 O   0  0  0  0  0  0  0  0  0  0  0  0
   -1.7789    0.2078    1.1747 C   0  0  0  0  0  0  0  0  0  0  0  0
    1.3187    0.7830    0.2468 C   0  0  0  0  0  0  0  0  0  0  0  0
    1.3862    1.9251    0.7579 O   0  0  0  0  0  0  0  0  0  0  0  0
    4.3134    0.2808   -0.0669 H   0  0  0  0  0  0  0  0  0  0  0  0
    3.4053    0.1750    1.3880 H   0  0  0  0  0  0  0  0  0  0  0  0
    2.5369    0.0650   -1.4156 H   0  0  0  0  0  0  0  0  0  0  0  0
    1.5249   -1.7528    0.8399 H   0  0  0  0  0  0  0  0  0  0  0  0
    1.2491   -1.8948   -1.0091 H   0  0  0  0  0  0  0  0  0  0  0  0
   -1.1993    0.4590   -2.2173 H   0  0  0  0  0  0  0  0  0  0  0  0
   -2.6992    0.8046   -1.1975 H   0  0  0  0  0  0  0  0  0  0  0  0
   -1.7848    2.6077   -0.4208 H   0  0  0  0  0  0  0  0  0  0  0  0
   -1.5444   -2.0009    0.8076 H   0  0  0  0  0  0  0  0  0  0  0  0
   -2.2711   -1.8149   -0.9006 H   0  0  0  0  0  0  0  0  0  0  0  0
   -1.3720   -0.4029    1.9959 H   0  0  0  0  0  0  0  0  0  0  0  0
   -1.9512    1.2678    1.3684 H   0  0  0  0  0  0  0  0  0  0  0  0
  1  2  1  0
  2  3  1  0
  3  4  1  0
  4  5  1  0
  5  6  1  0
  6  7  1  0
  5  8  1  0
  8  9  1  0
  9 10  1  0
  4 11  1  0
 11 12  2  0
 11  2  1  0
 10  5  1  0
  1 13  1  0
  1 14  1  0
  2 15  1  6
  3 16  1  0
  3 17  1  0
  6 18  1  0
  6 19  1  0
  7 20  1  0
  8 21  1  0
  8 22  1  0
 10 23  1  0
 10 24  1  0
M  END
$$$$

     RDKit          3D

 24 25  0  0  0  0  0  0  0  0999 V2000
    3.6073   -0.2810    0.1718 N   0  0  0  0  0  0  0  0  0  0  0  0
    2.2916    0.2344   -0.0599 C   0  0  1  0  0  0  0  0  0  0  0  0
    1.3599   -0.7013   -0.8350 C   0  0  0  0  0  0  0  0  0  0  0  0
    0.3164   -0.1208    0.0103 N   0  0  0  0  0  0  0  0  0  0  0  0
   -1.0787    0.2002   -0.0490 C   0  0  0  0  0  0  0  0  0  0  0  0
   -1.7694   -0.1191   -1.3283 C   0  0  0  0  0  0  0  0  0  0  0  0
   -1.6873   -1.4695   -1.5895 O   0  0  0  0  0  0  0  0  0  0  0  0
   -1.4821    1.4904    0.6274 C   0  0  0  0  0  0  0  0  0  0  0  0
   -2.6661    0.8507    1.0021 O   0  0  0  0  0  0  0  0  0  0  0  0
   -1.8887   -0.3236    1.1320 C   0  0  0  0  0  0  0  0  0  0  0  0
    1.3011    0.0216    1.0165 C   0  0  0  0  0  0  0  0  0  0  0  0
    1.2559   -0.0280    2.2604 O   0  0  0  0  0  0  0  0  0  0  0  0
    3.9238   -0.0988    1.1597 H   0  0  0  0  0  0  0  0  0  0  0  0
    4.2675    0.2370   -0.4738 H   0  0  0  0  0  0  0  0  0  0  0  0
    2.2367    1.2776   -0.4401 H   0  0  0  0  0  0  0  0  0  0  0  0
    1.6121   -1.7597   -0.5715 H   0  0  0  0  0  0  0  0  0  0  0  0
    1.2959   -0.4640   -1.8958 H   0  0  0  0  0  0  0  0  0  0  0  0
   -2.8555    0.1417   -1.2048 H   0  0  0  0  0  0  0  0  0  0  0  0
   -1.3633    0.4366   -2.1982 H   0  0  0  0  0  0  0  0  0  0  0  0
   -2.5324   -1.9513   -1.4459 H   0  0  0  0  0  0  0  0  0  0  0  0
   -1.5826    2.3665   -0.0121 H   0  0  0  0  0  0  0  0  0  0  0  0
   -0.8547    1.6274    1.5398 H   0  0  0  0  0  0  0  0  0  0  0  0
   -1.2987   -0.3213    2.0572 H   0  0  0  0  0  0  0  0  0  0  0  0
   -2.4085   -1.2457    0.8545 H   0  0  0  0  0  0  0  0  0  0  0  0
  1  2  1  0
  2  3  1  0
  3  4  1  0
  4  5  1  0
  5  6  1  0
  6  7  1  0
  5  8  1  0
  8  9  1  0
  9 10  1  0
  4 11  1  0
 11 12  2  0
 11  2  1  0
 10  5  1  0
  1 13  1  0
  1 14  1  0
  2 15  1  6
  3 16  1  0
  3 17  1  0
  6 18  1  0
  6 19  1  0
  7 20  1  0
  8 21  1  0
  8 22  1  0
 10 23  1  0
 10 24  1  0
M  END
$$$$

     RDKit          3D

 24 25  0  0  0  0  0  0  0  0999 V2000
    3.5943    0.0320   -0.3298 N   0  0  0  0  0  0  0  0  0  0  0  0
    2.2781    0.3047    0.1578 C   0  0  1  0  0  0  0  0  0  0  0  0
    1.2654    0.7466   -0.8832 C   0  0  0  0  0  0  0  0  0  0  0  0
    0.3049   -0.0013   -0.1228 N   0  0  0  0  0  0  0  0  0  0  0  0
   -1.0882   -0.0489    0.2235 C   0  0  0  0  0  0  0  0  0  0  0  0
   -1.8062   -1.3091   -0.1812 C   0  0  0  0  0  0  0  0  0  0  0  0
   -1.7425   -1.4702   -1.5617 O   0  0  0  0  0  0  0  0  0  0  0  0
   -1.3255    0.4100    1.6327 C   0  0  0  0  0  0  0  0  0  0  0  0
   -1.3780    1.7295    1.1236 O   0  0  0  0  0  0  0  0  0  0  0  0
   -1.8946    1.1667   -0.0463 C   0  0  0  0  0  0  0  0  0  0  0  0
    1.3772   -0.8709    0.2719 C   0  0  0  0  0  0  0  0  0  0  0  0
    1.4571   -2.0921    0.5717 O   0  0  0  0  0  0  0  0  0  0  0  0
    3.6413    0.0491   -1.3533 H   0  0  0  0  0  0  0  0  0  0  0  0
    4.0929   -0.7328    0.1392 H   0  0  0  0  0  0  0  0  0  0  0  0
    2.2588    0.8971    1.0922 H   0  0  0  0  0  0  0  0  0  0  0  0
    1.5167    0.2881   -1.8506 H   0  0  0  0  0  0  0  0  0  0  0  0
    1.1626    1.8404   -0.8787 H   0  0  0  0  0  0  0  0  0  0  0  0
   -1.2649   -2.1615    0.2947 H   0  0  0  0  0  0  0  0  0  0  0  0
   -2.8413   -1.2653    0.1799 H   0  0  0  0  0  0  0  0  0  0  0  0
   -2.1229   -0.6648   -1.9841 H   0  0  0  0  0  0  0  0  0  0  0  0
   -2.3387    0.1703    2.0424 H   0  0  0  0  0  0  0  0  0  0  0  0
   -0.4888    0.2901    2.3285 H   0  0  0  0  0  0  0  0  0  0  0  0
   -1.6818    1.7275   -0.9680 H   0  0  0  0  0  0  0  0  0  0  0  0
   -2.9761    0.9645    0.1018 H   0  0  0  0  0  0  0  0  0  0  0  0
  1  2  1  0
  2  3  1  0
  3  4  1  0
  4  5  1  0
  5  6  1  0
  6  7  1  0
  5  8  1  0
  8  9  1  0
  9 10  1  0
  4 11  1  0
 11 12  2  0
 11  2  1  0
 10  5  1  0
  1 13  1  0
  1 14  1  0
  2 15  1  1
  3 16  1  0
  3 17  1  0
  6 18  1  0
  6 19  1  0
  7 20  1  0
  8 21  1  0
  8 22  1  0
 10 23  1  0
 10 24  1  0
M  END
$$$$

     RDKit          3D

 24 25  0  0  0  0  0  0  0  0999 V2000
    3.5314   -0.3439    0.1422 N   0  0  0  0  0  0  0  0  0  0  0  0
    2.2610    0.2359   -0.1862 C   0  0  1  0  0  0  0  0  0  0  0  0
    1.3058   -0.6575   -0.9432 C   0  0  0  0  0  0  0  0  0  0  0  0
    0.2908   -0.1539   -0.0377 N   0  0  0  0  0  0  0  0  0  0  0  0
   -1.1374   -0.0554   -0.0290 C   0  0  0  0  0  0  0  0  0  0  0  0
   -1.7027    1.3319    0.0762 C   0  0  0  0  0  0  0  0  0  0  0  0
   -1.2936    2.1411   -0.9975 O   0  0  0  0  0  0  0  0  0  0  0  0
   -1.8437   -1.0059   -0.9340 C   0  0  0  0  0  0  0  0  0  0  0  0
   -1.7071   -1.9929    0.0664 O   0  0  0  0  0  0  0  0  0  0  0  0
   -1.8116   -0.9581    1.0012 C   0  0  0  0  0  0  0  0  0  0  0  0
    1.2837    0.2375    0.9103 C   0  0  0  0  0  0  0  0  0  0  0  0
    1.2661    0.4678    2.1386 O   0  0  0  0  0  0  0  0  0  0  0  0
    4.2620    0.4174    0.1816 H   0  0  0  0  0  0  0  0  0  0  0  0
    3.8134   -1.0939   -0.5307 H   0  0  0  0  0  0  0  0  0  0  0  0
    2.3910    1.2184   -0.7070 H   0  0  0  0  0  0  0  0  0  0  0  0
    1.1566   -0.3760   -2.0143 H   0  0  0  0  0  0  0  0  0  0  0  0
    1.5414   -1.7304   -0.8402 H   0  0  0  0  0  0  0  0  0  0  0  0
   -1.2731    1.7966    0.9929 H   0  0  0  0  0  0  0  0  0  0  0  0
   -2.7848    1.2956    0.1819 H   0  0  0  0  0  0  0  0  0  0  0  0
   -1.2942    3.0726   -0.6717 H   0  0  0  0  0  0  0  0  0  0  0  0
   -2.8890   -0.7681   -1.1525 H   0  0  0  0  0  0  0  0  0  0  0  0
   -1.2619   -1.3447   -1.8268 H   0  0  0  0  0  0  0  0  0  0  0  0
   -1.2318   -1.0735    1.9148 H   0  0  0  0  0  0  0  0  0  0  0  0
   -2.8726   -0.6605    1.1009 H   0  0  0  0  0  0  0  0  0  0  0  0
  1  2  1  0
  2  3  1  0
  3  4  1  0
  4  5  1  0
  5  6  1  0
  6  7  1  0
  5  8  1  0
  8  9  1  0
  9 10  1  0
  4 11  1  0
 11 12  2  0
 11  2  1  0
 10  5  1  0
  1 13  1  0
  1 14  1  0
  2 15  1  6
  3 16  1  0
  3 17  1  0
  6 18  1  0
  6 19  1  0
  7 20  1  0
  8 21  1  0
  8 22  1  0
 10 23  1  0
 10 24  1  0
M  END
$$$$

     RDKit          3D

 24 25  0  0  0  0  0  0  0  0999 V2000
    3.6729    0.1954   -0.1995 N   0  0  0  0  0  0  0  0  0  0  0  0
    2.3218    0.4496   -0.6390 C   0  0  1  0  0  0  0  0  0  0  0  0
    1.4559   -0.8028   -0.5783 C   0  0  0  0  0  0  0  0  0  0  0  0
    0.3933    0.0945   -0.1918 N   0  0  0  0  0  0  0  0  0  0  0  0
   -1.0294    0.0637   -0.3489 C   0  0  0  0  0  0  0  0  0  0  0  0
   -1.5520   -1.1410   -1.0599 C   0  0  0  0  0  0  0  0  0  0  0  0
   -2.9424   -1.0307   -1.1366 O   0  0  0  0  0  0  0  0  0  0  0  0
   -1.7139    1.3575   -0.6329 C   0  0  0  0  0  0  0  0  0  0  0  0
   -2.7211    0.9723    0.2813 O   0  0  0  0  0  0  0  0  0  0  0  0
   -1.7203    0.3047    0.9879 C   0  0  0  0  0  0  0  0  0  0  0  0
    1.3846    0.9447    0.3714 C   0  0  0  0  0  0  0  0  0  0  0  0
    1.3293    1.7375    1.3381 O   0  0  0  0  0  0  0  0  0  0  0  0
    4.3054    0.7648   -0.8063 H   0  0  0  0  0  0  0  0  0  0  0  0
    3.8449   -0.8309   -0.3141 H   0  0  0  0  0  0  0  0  0  0  0  0
    2.2484    0.9329   -1.6281 H   0  0  0  0  0  0  0  0  0  0  0  0
    1.7458   -1.4734    0.2650 H   0  0  0  0  0  0  0  0  0  0  0  0
    1.2865   -1.3059   -1.5364 H   0  0  0  0  0  0  0  0  0  0  0  0
   -1.1594   -1.1634   -2.0844 H   0  0  0  0  0  0  0  0  0  0  0  0
   -1.3248   -2.0652   -0.4867 H   0  0  0  0  0  0  0  0  0  0  0  0
   -3.3762   -1.9040   -1.1519 H   0  0  0  0  0  0  0  0  0  0  0  0
   -1.1688    2.2255   -0.2561 H   0  0  0  0  0  0  0  0  0  0  0  0
   -2.0523    1.4022   -1.6834 H   0  0  0  0  0  0  0  0  0  0  0  0
   -1.1763    0.9368    1.6928 H   0  0  0  0  0  0  0  0  0  0  0  0
   -2.0519   -0.6647    1.4414 H   0  0  0  0  0  0  0  0  0  0  0  0
  1  2  1  0
  2  3  1  0
  3  4  1  0
  4  5  1  0
  5  6  1  0
  6  7  1  0
  5  8  1  0
  8  9  1  0
  9 10  1  0
  4 11  1  0
 11 12  2  0
 11  2  1  0
 10  5  1  0
  1 13  1  0
  1 14  1  0
  2 15  1  6
  3 16  1  0
  3 17  1  0
  6 18  1  0
  6 19  1  0
  7 20  1  0
  8 21  1  0
  8 22  1  0
 10 23  1  0
 10 24  1  0
M  END
$$$$

     RDKit          3D

 24 25  0  0  0  0  0  0  0  0999 V2000
    2.0956    0.9070    1.2012 N   0  0  0  0  0  0  0  0  0  0  0  0
    2.1078    0.9922   -0.2401 C   0  0  1  0  0  0  0  0  0  0  0  0
    1.6902   -0.3476   -0.8589 C   0  0  0  0  0  0  0  0  0  0  0  0
    0.3380    0.0985   -0.5046 N   0  0  0  0  0  0  0  0  0  0  0  0
   -0.9150   -0.4733   -0.0887 C   0  0  0  0  0  0  0  0  0  0  0  0
   -1.3581    0.0300    1.2418 C   0  0  0  0  0  0  0  0  0  0  0  0
   -1.5262    1.3996    1.2306 O   0  0  0  0  0  0  0  0  0  0  0  0
   -1.0698   -1.9452   -0.2719 C   0  0  0  0  0  0  0  0  0  0  0  0
   -2.3826   -1.7065   -0.7191 O   0  0  0  0  0  0  0  0  0  0  0  0
   -1.9272   -0.4746   -1.1858 C   0  0  0  0  0  0  0  0  0  0  0  0
    0.7945    1.4078   -0.7538 C   0  0  0  0  0  0  0  0  0  0  0  0
    0.2850    2.4367   -1.2084 O   0  0  0  0  0  0  0  0  0  0  0  0
    1.9739    1.8073    1.6711 H   0  0  0  0  0  0  0  0  0  0  0  0
    2.7823    0.2615    1.5997 H   0  0  0  0  0  0  0  0  0  0  0  0
    2.9911    1.4503   -0.6991 H   0  0  0  0  0  0  0  0  0  0  0  0
    1.8258   -0.3542   -1.9713 H   0  0  0  0  0  0  0  0  0  0  0  0
    2.0454   -1.2248   -0.3211 H   0  0  0  0  0  0  0  0  0  0  0  0
   -2.3304   -0.4704    1.4956 H   0  0  0  0  0  0  0  0  0  0  0  0
   -0.6322   -0.3109    2.0135 H   0  0  0  0  0  0  0  0  0  0  0  0
   -1.2116    1.7491    2.1068 H   0  0  0  0  0  0  0  0  0  0  0  0
   -1.0233   -2.5732    0.6440 H   0  0  0  0  0  0  0  0  0  0  0  0
   -0.4928   -2.4022   -1.1003 H   0  0  0  0  0  0  0  0  0  0  0  0
   -2.6270    0.3612   -1.1103 H   0  0  0  0  0  0  0  0  0  0  0  0
   -1.4333   -0.6184   -2.1709 H   0  0  0  0  0  0  0  0  0  0  0  0
  1  2  1  0
  2  3  1  0
  3  4  1  0
  4  5  1  0
  5  6  1  0
  6  7  1  0
  5  8  1  0
  8  9  1  0
  9 10  1  0
  4 11  1  0
 11 12  2  0
 11  2  1  0
 10  5  1  0
  1 13  1  0
  1 14  1  0
  2 15  1  6
  3 16  1  0
  3 17  1  0
  6 18  1  0
  6 19  1  0
  7 20  1  0
  8 21  1  0
  8 22  1  0
 10 23  1  0
 10 24  1  0
M  END
$$$$

     RDKit          3D

 24 25  0  0  0  0  0  0  0  0999 V2000
    3.6020    0.6230   -0.5149 N   0  0  0  0  0  0  0  0  0  0  0  0
    2.3282   -0.0089   -0.3505 C   0  0  1  0  0  0  0  0  0  0  0  0
    1.4568    0.5706    0.7594 C   0  0  0  0  0  0  0  0  0  0  0  0
    0.3498    0.2438   -0.1458 N   0  0  0  0  0  0  0  0  0  0  0  0
   -1.0030   -0.1583   -0.0625 C   0  0  0  0  0  0  0  0  0  0  0  0
   -1.9362    0.8053   -0.7106 C   0  0  0  0  0  0  0  0  0  0  0  0
   -3.2626    0.3718   -0.6066 O   0  0  0  0  0  0  0  0  0  0  0  0
   -1.3193   -1.5832   -0.4681 C   0  0  0  0  0  0  0  0  0  0  0  0
   -2.3331   -1.5495    0.4928 O   0  0  0  0  0  0  0  0  0  0  0  0
   -1.4539   -0.7473    1.2518 C   0  0  0  0  0  0  0  0  0  0  0  0
    1.2439    0.5116   -1.2180 C   0  0  0  0  0  0  0  0  0  0  0  0
    1.0335    0.9905   -2.3551 O   0  0  0  0  0  0  0  0  0  0  0  0
    4.3027    0.1250    0.0538 H   0  0  0  0  0  0  0  0  0  0  0  0
    3.5204    1.6326   -0.3487 H   0  0  0  0  0  0  0  0  0  0  0  0
    2.3308   -1.1077   -0.2609 H   0  0  0  0  0  0  0  0  0  0  0  0
    1.6244    1.6652    0.8544 H   0  0  0  0  0  0  0  0  0  0  0  0
    1.4388    0.0045    1.6908 H   0  0  0  0  0  0  0  0  0  0  0  0
   -1.8139    1.8401   -0.3131 H   0  0  0  0  0  0  0  0  0  0  0  0
   -1.7087    0.8621   -1.7965 H   0  0  0  0  0  0  0  0  0  0  0  0
   -3.6051    0.4034    0.3007 H   0  0  0  0  0  0  0  0  0  0  0  0
   -1.6589   -1.7148   -1.5009 H   0  0  0  0  0  0  0  0  0  0  0  0
   -0.5414   -2.3135   -0.1248 H   0  0  0  0  0  0  0  0  0  0  0  0
   -1.9345   -0.0597    1.9482 H   0  0  0  0  0  0  0  0  0  0  0  0
   -0.6609   -1.4066    1.6620 H   0  0  0  0  0  0  0  0  0  0  0  0
  1  2  1  0
  2  3  1  0
  3  4  1  0
  4  5  1  0
  5  6  1  0
  6  7  1  0
  5  8  1  0
  8  9  1  0
  9 10  1  0
  4 11  1  0
 11 12  2  0
 11  2  1  0
 10  5  1  0
  1 13  1  0
  1 14  1  0
  2 15  1  1
  3 16  1  0
  3 17  1  0
  6 18  1  0
  6 19  1  0
  7 20  1  0
  8 21  1  0
  8 22  1  0
 10 23  1  0
 10 24  1  0
M  END
$$$$

     RDKit          3D

 24 25  0  0  0  0  0  0  0  0999 V2000
    3.4019    0.9030    0.6391 N   0  0  0  0  0  0  0  0  0  0  0  0
    2.3471    0.1980   -0.0263 C   0  0  1  0  0  0  0  0  0  0  0  0
    1.4300   -0.4911    0.9431 C   0  0  0  0  0  0  0  0  0  0  0  0
    0.3279    0.0066    0.1777 N   0  0  0  0  0  0  0  0  0  0  0  0
   -1.0629   -0.3328    0.0642 C   0  0  0  0  0  0  0  0  0  0  0  0
   -1.9996    0.7974    0.4257 C   0  0  0  0  0  0  0  0  0  0  0  0
   -1.7615    1.8678   -0.4204 O   0  0  0  0  0  0  0  0  0  0  0  0
   -1.4149   -1.0710   -1.1922 C   0  0  0  0  0  0  0  0  0  0  0  0
   -2.0988   -1.9967   -0.4242 O   0  0  0  0  0  0  0  0  0  0  0  0
   -1.4349   -1.6046    0.7550 C   0  0  0  0  0  0  0  0  0  0  0  0
    1.1706    0.9722   -0.4224 C   0  0  0  0  0  0  0  0  0  0  0  0
    1.0134    2.0567   -1.0456 O   0  0  0  0  0  0  0  0  0  0  0  0
    3.5994    1.8432    0.2873 H   0  0  0  0  0  0  0  0  0  0  0  0
    3.4501    0.7625    1.6505 H   0  0  0  0  0  0  0  0  0  0  0  0
    2.7239   -0.5269   -0.8020 H   0  0  0  0  0  0  0  0  0  0  0  0
    1.5198   -1.5859    1.0042 H   0  0  0  0  0  0  0  0  0  0  0  0
    1.4675   -0.0387    1.9555 H   0  0  0  0  0  0  0  0  0  0  0  0
   -1.7841    1.1418    1.4575 H   0  0  0  0  0  0  0  0  0  0  0  0
   -3.0578    0.4719    0.4263 H   0  0  0  0  0  0  0  0  0  0  0  0
   -2.5310    2.4722   -0.5311 H   0  0  0  0  0  0  0  0  0  0  0  0
   -2.0816   -0.5182   -1.8939 H   0  0  0  0  0  0  0  0  0  0  0  0
   -0.5555   -1.5556   -1.6990 H   0  0  0  0  0  0  0  0  0  0  0  0
   -2.1084   -1.5406    1.6098 H   0  0  0  0  0  0  0  0  0  0  0  0
   -0.5606   -2.2314    1.0033 H   0  0  0  0  0  0  0  0  0  0  0  0
  1  2  1  0
  2  3  1  0
  3  4  1  0
  4  5  1  0
  5  6  1  0
  6  7  1  0
  5  8  1  0
  8  9  1  0
  9 10  1  0
  4 11  1  0
 11 12  2  0
 11  2  1  0
 10  5  1  0
  1 13  1  0
  1 14  1  0
  2 15  1  6
  3 16  1  0
  3 17  1  0
  6 18  1  0
  6 19  1  0
  7 20  1  0
  8 21  1  0
  8 22  1  0
 10 23  1  0
 10 24  1  0
M  END
$$$$
