
     RDKit          3D

 26 26  0  0  0  0  0  0  0  0999 V2000
   -2.0394   -1.5443    0.3995 C   0  0  0  0  0  0  0  0  0  0  0  0
   -1.7913   -0.0353    0.3715 C   0  0  1  0  0  0  0  0  0  0  0  0
   -0.3702    0.1788    0.7174 C   0  0  0  0  0  0  0  0  0  0  0  0
   -0.1334    0.8012    1.7967 O   0  0  0  0  0  0  0  0  0  0  0  0
    0.6942   -0.2846   -0.1066 N   0  0  0  0  0  0  0  0  0  0  0  0
    1.9404   -0.0626    0.2917 O   0  0  0  0  0  0  0  0  0  0  0  0
    2.9092   -0.4612   -0.6199 C   0  0  0  0  0  0  0  0  0  0  0  0
    4.2393   -0.1756    0.0399 C   0  0  0  0  0  0  0  0  0  0  0  0
    4.3010    1.2040    0.2976 O   0  0  0  0  0  0  0  0  0  0  0  0
   -2.3667    0.6771   -0.7818 C   0  0  0  0  0  0  0  0  0  0  0  0
   -3.4821    1.0702    0.1652 C   0  0  0  0  0  0  0  0  0  0  0  0
   -2.6563    0.6778    1.2876 N   0  0  0  0  0  0  0  0  0  0  0  0
   -1.8909   -1.9193   -0.6188 H   0  0  0  0  0  0  0  0  0  0  0  0
   -3.0782   -1.6799    0.7822 H   0  0  0  0  0  0  0  0  0  0  0  0
   -1.3590   -1.9914    1.1291 H   0  0  0  0  0  0  0  0  0  0  0  0
    0.4215   -0.7712   -0.9856 H   0  0  0  0  0  0  0  0  0  0  0  0
    2.8226    0.0513   -1.5918 H   0  0  0  0  0  0  0  0  0  0  0  0
    2.7905   -1.5560   -0.7737 H   0  0  0  0  0  0  0  0  0  0  0  0
    4.2406   -0.6786    1.0447 H   0  0  0  0  0  0  0  0  0  0  0  0
    5.0482   -0.5065   -0.6149 H   0  0  0  0  0  0  0  0  0  0  0  0
    4.5324    1.3864    1.2339 H   0  0  0  0  0  0  0  0  0  0  0  0
   -1.8053    1.5530   -1.1859 H   0  0  0  0  0  0  0  0  0  0  0  0
   -2.7030   -0.0503   -1.5689 H   0  0  0  0  0  0  0  0  0  0  0  0
   -4.3918    0.4420    0.0965 H   0  0  0  0  0  0  0  0  0  0  0  0
   -3.6807    2.1679    0.1494 H   0  0  0  0  0  0  0  0  0  0  0  0
   -2.1916    1.5070    1.7367 H   0  0  0  0  0  0  0  0  0  0  0  0
  2  1  1  6
  2  3  1  0
  3  4  2  0
  3  5  1  0
  5  6  1  0
  6  7  1  0
  7  8  1  0
  8  9  1  0
  2 10  1  0
 10 11  1  0
 11 12  1  0
 12  2  1  0
  1 13  1  0
  1 14  1  0
  1 15  1  0
  5 16  1  0
  7 17  1  0
  7 18  1  0
  8 19  1  0
  8 20  1  0
  9 21  1  0
 10 22  1  0
 10 23  1  0
 11 24  1  0
 11 25  1  0
 12 26  1  0
M  END
$$$$

     RDKit          3D

 26 26  0  0  0  0  0  0  0  0999 V2000
   -1.8045    1.1571   -0.6769 C   0  0  0  0  0  0  0  0  0  0  0  0
   -1.6414   -0.1116    0.1270 C   0  0  1  0  0  0  0  0  0  0  0  0
   -0.2222   -0.5309    0.2885 C   0  0  0  0  0  0  0  0  0  0  0  0
    0.1322   -1.6930    0.0954 O   0  0  0  0  0  0  0  0  0  0  0  0
    0.7265    0.4531    0.6771 N   0  0  0  0  0  0  0  0  0  0  0  0
    2.0274    0.2546    0.8668 O   0  0  0  0  0  0  0  0  0  0  0  0
    2.6515   -0.1702   -0.2959 C   0  0  0  0  0  0  0  0  0  0  0  0
    4.1550   -0.3535   -0.0175 C   0  0  0  0  0  0  0  0  0  0  0  0
    4.6707    0.8787    0.3885 O   0  0  0  0  0  0  0  0  0  0  0  0
   -2.4130    0.0068    1.4174 C   0  0  0  0  0  0  0  0  0  0  0  0
   -3.5197   -0.6607    0.6309 C   0  0  0  0  0  0  0  0  0  0  0  0
   -2.5330   -1.1752   -0.2763 N   0  0  0  0  0  0  0  0  0  0  0  0
   -2.8550    1.2835   -1.0224 H   0  0  0  0  0  0  0  0  0  0  0  0
   -1.1862    1.0600   -1.5863 H   0  0  0  0  0  0  0  0  0  0  0  0
   -1.5743    2.0684   -0.0887 H   0  0  0  0  0  0  0  0  0  0  0  0
    0.3833    1.4525    0.8400 H   0  0  0  0  0  0  0  0  0  0  0  0
    2.2416   -1.1548   -0.5824 H   0  0  0  0  0  0  0  0  0  0  0  0
    2.5501    0.5709   -1.1129 H   0  0  0  0  0  0  0  0  0  0  0  0
    4.6964   -0.6478   -0.9380 H   0  0  0  0  0  0  0  0  0  0  0  0
    4.3182   -1.1064    0.7815 H   0  0  0  0  0  0  0  0  0  0  0  0
    4.3529    1.5535   -0.2922 H   0  0  0  0  0  0  0  0  0  0  0  0
   -2.6371    1.0302    1.7546 H   0  0  0  0  0  0  0  0  0  0  0  0
   -2.0648   -0.6588    2.2323 H   0  0  0  0  0  0  0  0  0  0  0  0
   -4.0854   -1.4147    1.1936 H   0  0  0  0  0  0  0  0  0  0  0  0
   -4.2058    0.0366    0.0985 H   0  0  0  0  0  0  0  0  0  0  0  0
   -2.1635   -2.1282   -0.0733 H   0  0  0  0  0  0  0  0  0  0  0  0
  2  1  1  6
  2  3  1  0
  3  4  2  0
  3  5  1  0
  5  6  1  0
  6  7  1  0
  7  8  1  0
  8  9  1  0
  2 10  1  0
 10 11  1  0
 11 12  1  0
 12  2  1  0
  1 13  1  0
  1 14  1  0
  1 15  1  0
  5 16  1  0
  7 17  1  0
  7 18  1  0
  8 19  1  0
  8 20  1  0
  9 21  1  0
 10 22  1  0
 10 23  1  0
 11 24  1  0
 11 25  1  0
 12 26  1  0
M  END
$$$$

     RDKit          3D

 26 26  0  0  0  0  0  0  0  0999 V2000
   -2.6950   -0.0803   -1.1727 C   0  0  0  0  0  0  0  0  0  0  0  0
   -1.7519   -0.2848   -0.0098 C   0  0  1  0  0  0  0  0  0  0  0  0
   -0.3848   -0.6687   -0.3927 C   0  0  0  0  0  0  0  0  0  0  0  0
   -0.0241   -1.8863   -0.2005 O   0  0  0  0  0  0  0  0  0  0  0  0
    0.5809    0.2026   -0.9528 N   0  0  0  0  0  0  0  0  0  0  0  0
    1.8063   -0.3009   -1.2245 O   0  0  0  0  0  0  0  0  0  0  0  0
    2.6850    0.3556   -0.3451 C   0  0  0  0  0  0  0  0  0  0  0  0
    4.1222   -0.1107   -0.5038 C   0  0  0  0  0  0  0  0  0  0  0  0
    4.8653    0.6066    0.4339 O   0  0  0  0  0  0  0  0  0  0  0  0
   -1.8860    0.7656    1.0323 C   0  0  0  0  0  0  0  0  0  0  0  0
   -2.8719   -0.1776    1.6640 C   0  0  0  0  0  0  0  0  0  0  0  0
   -2.2616   -1.2620    0.9672 N   0  0  0  0  0  0  0  0  0  0  0  0
   -3.5995   -0.7069   -1.0013 H   0  0  0  0  0  0  0  0  0  0  0  0
   -2.9534    0.9786   -1.3096 H   0  0  0  0  0  0  0  0  0  0  0  0
   -2.2012   -0.5099   -2.0876 H   0  0  0  0  0  0  0  0  0  0  0  0
    0.3396    1.1944   -1.1282 H   0  0  0  0  0  0  0  0  0  0  0  0
    2.3516    0.1753    0.6895 H   0  0  0  0  0  0  0  0  0  0  0  0
    2.6156    1.4283   -0.6157 H   0  0  0  0  0  0  0  0  0  0  0  0
    4.1605   -1.1734   -0.1651 H   0  0  0  0  0  0  0  0  0  0  0  0
    4.5059   -0.0260   -1.5357 H   0  0  0  0  0  0  0  0  0  0  0  0
    5.6024    1.0814    0.0014 H   0  0  0  0  0  0  0  0  0  0  0  0
   -2.4164    1.7081    0.7457 H   0  0  0  0  0  0  0  0  0  0  0  0
   -1.0103    0.9272    1.7102 H   0  0  0  0  0  0  0  0  0  0  0  0
   -3.9273    0.0100    1.3724 H   0  0  0  0  0  0  0  0  0  0  0  0
   -2.8140   -0.2299    2.7757 H   0  0  0  0  0  0  0  0  0  0  0  0
   -2.8378   -2.0162    0.5991 H   0  0  0  0  0  0  0  0  0  0  0  0
  2  1  1  6
  2  3  1  0
  3  4  2  0
  3  5  1  0
  5  6  1  0
  6  7  1  0
  7  8  1  0
  8  9  1  0
  2 10  1  0
 10 11  1  0
 11 12  1  0
 12  2  1  0
  1 13  1  0
  1 14  1  0
  1 15  1  0
  5 16  1  0
  7 17  1  0
  7 18  1  0
  8 19  1  0
  8 20  1  0
  9 21  1  0
 10 22  1  0
 10 23  1  0
 11 24  1  0
 11 25  1  0
 12 26  1  0
M  END
$$$$

     RDKit          3D

 26 26  0  0  0  0  0  0  0  0999 V2000
   -1.8008    1.7063   -0.8434 C   0  0  0  0  0  0  0  0  0  0  0  0
   -1.7713    0.3095   -0.2779 C   0  0  1  0  0  0  0  0  0  0  0  0
   -0.4623   -0.3366   -0.1724 C   0  0  0  0  0  0  0  0  0  0  0  0
   -0.2469   -1.4946   -0.6131 O   0  0  0  0  0  0  0  0  0  0  0  0
    0.6243    0.3428    0.4441 N   0  0  0  0  0  0  0  0  0  0  0  0
    1.8346   -0.3013    0.5205 O   0  0  0  0  0  0  0  0  0  0  0  0
    2.6898    0.3009   -0.3956 C   0  0  0  0  0  0  0  0  0  0  0  0
    4.0652   -0.3565   -0.4049 C   0  0  0  0  0  0  0  0  0  0  0  0
    3.9470   -1.7054   -0.7456 O   0  0  0  0  0  0  0  0  0  0  0  0
   -2.6844    0.2374    0.9221 C   0  0  0  0  0  0  0  0  0  0  0  0
   -2.9223   -1.1792    0.3965 C   0  0  0  0  0  0  0  0  0  0  0  0
   -2.7306   -0.6020   -0.9401 N   0  0  0  0  0  0  0  0  0  0  0  0
   -0.9769    1.8809   -1.5392 H   0  0  0  0  0  0  0  0  0  0  0  0
   -1.7490    2.3976    0.0225 H   0  0  0  0  0  0  0  0  0  0  0  0
   -2.7988    1.8607   -1.3111 H   0  0  0  0  0  0  0  0  0  0  0  0
    0.5637    1.3020    0.8459 H   0  0  0  0  0  0  0  0  0  0  0  0
    2.2407    0.2182   -1.3998 H   0  0  0  0  0  0  0  0  0  0  0  0
    2.8490    1.3518   -0.0767 H   0  0  0  0  0  0  0  0  0  0  0  0
    4.5477   -0.2387    0.5837 H   0  0  0  0  0  0  0  0  0  0  0  0
    4.6396    0.1834   -1.1938 H   0  0  0  0  0  0  0  0  0  0  0  0
    4.2965   -2.3125   -0.0418 H   0  0  0  0  0  0  0  0  0  0  0  0
   -3.6034    0.8268    0.7066 H   0  0  0  0  0  0  0  0  0  0  0  0
   -2.2481    0.3268    1.9072 H   0  0  0  0  0  0  0  0  0  0  0  0
   -2.1148   -1.8623    0.7286 H   0  0  0  0  0  0  0  0  0  0  0  0
   -3.9394   -1.5690    0.5865 H   0  0  0  0  0  0  0  0  0  0  0  0
   -2.2492   -1.2871   -1.5733 H   0  0  0  0  0  0  0  0  0  0  0  0
  2  1  1  6
  2  3  1  0
  3  4  2  0
  3  5  1  0
  5  6  1  0
  6  7  1  0
  7  8  1  0
  8  9  1  0
  2 10  1  0
 10 11  1  0
 11 12  1  0
 12  2  1  0
  1 13  1  0
  1 14  1  0
  1 15  1  0
  5 16  1  0
  7 17  1  0
  7 18  1  0
  8 19  1  0
  8 20  1  0
  9 21  1  0
 10 22  1  0
 10 23  1  0
 11 24  1  0
 11 25  1  0
 12 26  1  0
M  END
$$$$

     RDKit          3D

 26 26  0  0  0  0  0  0  0  0999 V2000
   -1.6939    1.0762    1.6599 C   0  0  0  0  0  0  0  0  0  0  0  0
   -1.6163    0.2016    0.4445 C   0  0  1  0  0  0  0  0  0  0  0  0
   -0.4794   -0.7510    0.4512 C   0  0  0  0  0  0  0  0  0  0  0  0
   -0.5856   -1.8760    1.0016 O   0  0  0  0  0  0  0  0  0  0  0  0
    0.6784   -0.3711   -0.1681 N   0  0  0  0  0  0  0  0  0  0  0  0
    1.8869   -1.0853   -0.1304 O   0  0  0  0  0  0  0  0  0  0  0  0
    2.7731   -0.3832   -1.0370 C   0  0  0  0  0  0  0  0  0  0  0  0
    3.8122    0.3166   -0.2123 C   0  0  0  0  0  0  0  0  0  0  0  0
    4.5895   -0.5456    0.5437 O   0  0  0  0  0  0  0  0  0  0  0  0
   -2.9909   -0.4752    0.2150 C   0  0  0  0  0  0  0  0  0  0  0  0
   -2.6078   -0.3317   -1.2505 C   0  0  0  0  0  0  0  0  0  0  0  0
   -1.7966    0.8056   -0.7999 N   0  0  0  0  0  0  0  0  0  0  0  0
   -0.7414    1.0517    2.2501 H   0  0  0  0  0  0  0  0  0  0  0  0
   -2.0134    2.1011    1.5479 H   0  0  0  0  0  0  0  0  0  0  0  0
   -2.4116    0.5732    2.3917 H   0  0  0  0  0  0  0  0  0  0  0  0
    0.6042    0.4738   -0.8474 H   0  0  0  0  0  0  0  0  0  0  0  0
    2.1840    0.3565   -1.5958 H   0  0  0  0  0  0  0  0  0  0  0  0
    3.2134   -1.1029   -1.7042 H   0  0  0  0  0  0  0  0  0  0  0  0
    4.4159    1.0333   -0.8579 H   0  0  0  0  0  0  0  0  0  0  0  0
    3.2189    1.0509    0.4555 H   0  0  0  0  0  0  0  0  0  0  0  0
    3.9264   -1.1843    0.9611 H   0  0  0  0  0  0  0  0  0  0  0  0
   -3.7821    0.1986    0.5142 H   0  0  0  0  0  0  0  0  0  0  0  0
   -2.9774   -1.5230    0.6018 H   0  0  0  0  0  0  0  0  0  0  0  0
   -1.9781   -1.2343   -1.5759 H   0  0  0  0  0  0  0  0  0  0  0  0
   -3.4383   -0.0949   -1.9485 H   0  0  0  0  0  0  0  0  0  0  0  0
   -2.1902    1.7192   -0.9104 H   0  0  0  0  0  0  0  0  0  0  0  0
  2  1  1  1
  2  3  1  0
  3  4  2  0
  3  5  1  0
  5  6  1  0
  6  7  1  0
  7  8  1  0
  8  9  1  0
  2 10  1  0
 10 11  1  0
 11 12  1  0
 12  2  1  0
  1 13  1  0
  1 14  1  0
  1 15  1  0
  5 16  1  0
  7 17  1  0
  7 18  1  0
  8 19  1  0
  8 20  1  0
  9 21  1  0
 10 22  1  0
 10 23  1  0
 11 24  1  0
 11 25  1  0
 12 26  1  0
M  END
$$$$

     RDKit          3D

 26 26  0  0  0  0  0  0  0  0999 V2000
   -2.1064   -0.7144   -1.2908 C   0  0  0  0  0  0  0  0  0  0  0  0
   -1.6635   -0.0557   -0.0753 C   0  0  1  0  0  0  0  0  0  0  0  0
   -0.3472   -0.4570    0.4458 C   0  0  0  0  0  0  0  0  0  0  0  0
   -0.0934   -0.4194    1.6498 O   0  0  0  0  0  0  0  0  0  0  0  0
    0.7534   -0.9243   -0.4192 N   0  0  0  0  0  0  0  0  0  0  0  0
    1.8993   -1.1598    0.2943 O   0  0  0  0  0  0  0  0  0  0  0  0
    3.0268   -0.6540   -0.4437 C   0  0  0  0  0  0  0  0  0  0  0  0
    3.7539    0.2790    0.4589 C   0  0  0  0  0  0  0  0  0  0  0  0
    4.9037    0.7767   -0.1836 O   0  0  0  0  0  0  0  0  0  0  0  0
   -2.0469    1.3478   -0.0403 C   0  0  0  0  0  0  0  0  0  0  0  0
   -3.3991    0.7775    0.4625 C   0  0  0  0  0  0  0  0  0  0  0  0
   -2.6193   -0.1918    1.0766 N   0  0  0  0  0  0  0  0  0  0  0  0
   -3.0973   -1.1745   -1.2310 H   0  0  0  0  0  0  0  0  0  0  0  0
   -1.4238   -1.6121   -1.4624 H   0  0  0  0  0  0  0  0  0  0  0  0
   -1.9846   -0.1063   -2.1837 H   0  0  0  0  0  0  0  0  0  0  0  0
    0.5204   -0.9449   -1.4095 H   0  0  0  0  0  0  0  0  0  0  0  0
    3.7087   -1.7075   -0.3220 H   0  0  0  0  0  0  0  0  0  0  0  0
    2.9642   -0.5654   -1.4794 H   0  0  0  0  0  0  0  0  0  0  0  0
    4.1602   -0.0852    1.4441 H   0  0  0  0  0  0  0  0  0  0  0  0
    3.0999    1.1310    0.7440 H   0  0  0  0  0  0  0  0  0  0  0  0
    4.7269    1.7289   -0.3249 H   0  0  0  0  0  0  0  0  0  0  0  0
   -1.6257    1.9993    0.7170 H   0  0  0  0  0  0  0  0  0  0  0  0
   -2.2204    1.8473   -1.0146 H   0  0  0  0  0  0  0  0  0  0  0  0
   -3.9146    1.5666    1.0534 H   0  0  0  0  0  0  0  0  0  0  0  0
   -4.0297    0.4934   -0.4160 H   0  0  0  0  0  0  0  0  0  0  0  0
   -2.9455   -1.1753    1.2406 H   0  0  0  0  0  0  0  0  0  0  0  0
  2  1  1  6
  2  3  1  0
  3  4  2  0
  3  5  1  0
  5  6  1  0
  6  7  1  0
  7  8  1  0
  8  9  1  0
  2 10  1  0
 10 11  1  0
 11 12  1  0
 12  2  1  0
  1 13  1  0
  1 14  1  0
  1 15  1  0
  5 16  1  0
  7 17  1  0
  7 18  1  0
  8 19  1  0
  8 20  1  0
  9 21  1  0
 10 22  1  0
 10 23  1  0
 11 24  1  0
 11 25  1  0
 12 26  1  0
M  END
$$$$

     RDKit          3D

 26 26  0  0  0  0  0  0  0  0999 V2000
    1.9062    1.6975    0.1848 C   0  0  0  0  0  0  0  0  0  0  0  0
    1.5287    0.2360   -0.2963 C   0  0  1  0  0  0  0  0  0  0  0  0
    0.1583    0.2293   -0.6782 C   0  0  0  0  0  0  0  0  0  0  0  0
   -0.4132    1.3694   -0.9728 O   0  0  0  0  0  0  0  0  0  0  0  0
   -0.6864   -0.9408   -0.7562 N   0  0  0  0  0  0  0  0  0  0  0  0
   -1.9730   -0.5908   -1.1266 O   0  0  0  0  0  0  0  0  0  0  0  0
   -2.6358   -0.7750    0.1158 C   0  0  0  0  0  0  0  0  0  0  0  0
   -3.9973   -0.1691    0.1022 C   0  0  0  0  0  0  0  0  0  0  0  0
   -3.9182    1.2452   -0.1664 O   0  0  0  0  0  0  0  0  0  0  0  0
    2.5584   -0.5495   -0.8941 C   0  0  0  0  0  0  0  0  0  0  0  0
    3.0720   -0.6687    0.5501 C   0  0  0  0  0  0  0  0  0  0  0  0
    1.7214   -0.5460    0.9724 N   0  0  0  0  0  0  0  0  0  0  0  0
    2.6005    2.1765   -0.4616 H   0  0  0  0  0  0  0  0  0  0  0  0
    0.9058    2.2284    0.1681 H   0  0  0  0  0  0  0  0  0  0  0  0
    2.1821    1.6785    1.2568 H   0  0  0  0  0  0  0  0  0  0  0  0
   -0.3256   -1.8382   -0.5149 H   0  0  0  0  0  0  0  0  0  0  0  0
   -2.7776   -1.9549    0.1192 H   0  0  0  0  0  0  0  0  0  0  0  0
   -1.9995   -0.5477    0.9715 H   0  0  0  0  0  0  0  0  0  0  0  0
   -4.7143   -0.5867   -0.5871 H   0  0  0  0  0  0  0  0  0  0  0  0
   -4.3915   -0.1668    1.1628 H   0  0  0  0  0  0  0  0  0  0  0  0
   -3.0349    1.5142    0.2942 H   0  0  0  0  0  0  0  0  0  0  0  0
    3.3249   -0.0285   -1.5556 H   0  0  0  0  0  0  0  0  0  0  0  0
    2.2685   -1.5420   -1.2799 H   0  0  0  0  0  0  0  0  0  0  0  0
    3.6360    0.2326    0.8632 H   0  0  0  0  0  0  0  0  0  0  0  0
    3.5509   -1.6530    0.7110 H   0  0  0  0  0  0  0  0  0  0  0  0
    1.4537   -0.0498    1.8174 H   0  0  0  0  0  0  0  0  0  0  0  0
  2  1  1  1
  2  3  1  0
  3  4  2  0
  3  5  1  0
  5  6  1  0
  6  7  1  0
  7  8  1  0
  8  9  1  0
  2 10  1  0
 10 11  1  0
 11 12  1  0
 12  2  1  0
  1 13  1  0
  1 14  1  0
  1 15  1  0
  5 16  1  0
  7 17  1  0
  7 18  1  0
  8 19  1  0
  8 20  1  0
  9 21  1  0
 10 22  1  0
 10 23  1  0
 11 24  1  0
 11 25  1  0
 12 26  1  0
M  END
$$$$

     RDKit          3D

 26 26  0  0  0  0  0  0  0  0999 V2000
   -1.9900   -1.4839   -0.0093 C   0  0  0  0  0  0  0  0  0  0  0  0
   -1.7083    0.0081    0.2153 C   0  0  1  0  0  0  0  0  0  0  0  0
   -0.2639    0.1941    0.4240 C   0  0  0  0  0  0  0  0  0  0  0  0
    0.1640    0.4754    1.5795 O   0  0  0  0  0  0  0  0  0  0  0  0
    0.6531    0.0755   -0.6401 N   0  0  0  0  0  0  0  0  0  0  0  0
    1.9491    0.2428   -0.4909 O   0  0  0  0  0  0  0  0  0  0  0  0
    2.6577   -0.6374    0.2753 C   0  0  0  0  0  0  0  0  0  0  0  0
    4.1243   -0.1875    0.2616 C   0  0  0  0  0  0  0  0  0  0  0  0
    4.2854    1.0963    0.7718 O   0  0  0  0  0  0  0  0  0  0  0  0
   -2.3628    0.9089   -0.7697 C   0  0  0  0  0  0  0  0  0  0  0  0
   -3.4685    1.0005    0.2340 C   0  0  0  0  0  0  0  0  0  0  0  0
   -2.5702    0.4755    1.2573 N   0  0  0  0  0  0  0  0  0  0  0  0
   -2.2908   -1.9061    0.9864 H   0  0  0  0  0  0  0  0  0  0  0  0
   -1.0743   -2.0260   -0.3380 H   0  0  0  0  0  0  0  0  0  0  0  0
   -2.8424   -1.6091   -0.6569 H   0  0  0  0  0  0  0  0  0  0  0  0
    0.3304   -0.1574   -1.6536 H   0  0  0  0  0  0  0  0  0  0  0  0
    2.3297   -0.5834    1.3402 H   0  0  0  0  0  0  0  0  0  0  0  0
    2.6454   -1.6547   -0.1487 H   0  0  0  0  0  0  0  0  0  0  0  0
    4.7710   -0.8853    0.8552 H   0  0  0  0  0  0  0  0  0  0  0  0
    4.5490   -0.2162   -0.7790 H   0  0  0  0  0  0  0  0  0  0  0  0
    4.8655    1.0830    1.5477 H   0  0  0  0  0  0  0  0  0  0  0  0
   -2.6371    0.4138   -1.7448 H   0  0  0  0  0  0  0  0  0  0  0  0
   -1.8454    1.8834   -0.9107 H   0  0  0  0  0  0  0  0  0  0  0  0
   -3.8572    2.0164    0.3957 H   0  0  0  0  0  0  0  0  0  0  0  0
   -4.2553    0.2546   -0.0251 H   0  0  0  0  0  0  0  0  0  0  0  0
   -2.1587    1.2186    1.8728 H   0  0  0  0  0  0  0  0  0  0  0  0
  2  1  1  6
  2  3  1  0
  3  4  2  0
  3  5  1  0
  5  6  1  0
  6  7  1  0
  7  8  1  0
  8  9  1  0
  2 10  1  0
 10 11  1  0
 11 12  1  0
 12  2  1  0
  1 13  1  0
  1 14  1  0
  1 15  1  0
  5 16  1  0
  7 17  1  0
  7 18  1  0
  8 19  1  0
  8 20  1  0
  9 21  1  0
 10 22  1  0
 10 23  1  0
 11 24  1  0
 11 25  1  0
 12 26  1  0
M  END
$$$$
