
     RDKit          3D

 32 31  0  0  0  0  0  0  0  0999 V2000
   -2.1192    2.2914   -0.9193 C   0  0  0  0  0  0  0  0  0  0  0  0
   -1.2950    2.0505    0.1126 O   0  0  0  0  0  0  0  0  0  0  0  0
   -1.3053    0.9149    0.8112 C   0  0  0  0  0  0  0  0  0  0  0  0
   -1.0267   -0.3828    0.1369 C   0  0  1  0  0  0  0  0  0  0  0  0
   -0.9121   -1.4918    1.2203 C   0  0  0  0  0  0  0  0  0  0  0  0
   -2.0995   -0.8877   -0.7833 C   0  0  0  0  0  0  0  0  0  0  0  0
   -3.4115   -0.8509   -0.1656 N   0  0  0  0  0  0  0  0  0  0  0  0
    0.1967   -0.4095   -0.5040 O   0  0  0  0  0  0  0  0  0  0  0  0
    1.2907   -0.2066    0.2978 C   0  0  0  0  0  0  0  0  0  0  0  0
    2.5333   -0.2752   -0.5839 C   0  0  1  0  0  0  0  0  0  0  0  0
    2.4501    0.7103   -1.5525 O   0  0  0  0  0  0  0  0  0  0  0  0
    3.7762   -0.0091    0.2736 C   0  0  0  0  0  0  0  0  0  0  0  0
    4.8897   -0.0413   -0.5426 O   0  0  0  0  0  0  0  0  0  0  0  0
   -3.1927    2.2064   -0.6399 H   0  0  0  0  0  0  0  0  0  0  0  0
   -1.9699    3.3934   -1.2341 H   0  0  0  0  0  0  0  0  0  0  0  0
   -1.8781    1.7342   -1.8273 H   0  0  0  0  0  0  0  0  0  0  0  0
   -0.4946    1.0166    1.6151 H   0  0  0  0  0  0  0  0  0  0  0  0
   -2.2643    0.8739    1.4035 H   0  0  0  0  0  0  0  0  0  0  0  0
   -0.3280   -2.3146    0.7628 H   0  0  0  0  0  0  0  0  0  0  0  0
   -0.3896   -1.1385    2.1042 H   0  0  0  0  0  0  0  0  0  0  0  0
   -1.9063   -1.9172    1.4519 H   0  0  0  0  0  0  0  0  0  0  0  0
   -2.0577   -0.5244   -1.8059 H   0  0  0  0  0  0  0  0  0  0  0  0
   -1.8888   -2.0105   -0.8862 H   0  0  0  0  0  0  0  0  0  0  0  0
   -4.1127   -0.3330   -0.7112 H   0  0  0  0  0  0  0  0  0  0  0  0
   -3.4087   -0.7007    0.8433 H   0  0  0  0  0  0  0  0  0  0  0  0
    1.3323    0.8286    0.7471 H   0  0  0  0  0  0  0  0  0  0  0  0
    1.3907   -0.9062    1.1409 H   0  0  0  0  0  0  0  0  0  0  0  0
    2.6330   -1.2728   -1.0409 H   0  0  0  0  0  0  0  0  0  0  0  0
    2.8971    0.4581   -2.4068 H   0  0  0  0  0  0  0  0  0  0  0  0
    3.6522    0.9646    0.7853 H   0  0  0  0  0  0  0  0  0  0  0  0
    3.7913   -0.8288    1.0272 H   0  0  0  0  0  0  0  0  0  0  0  0
    5.2271   -0.9414   -0.6912 H   0  0  0  0  0  0  0  0  0  0  0  0
  1  2  1  0
  2  3  1  0
  3  4  1  0
  4  5  1  0
  4  6  1  0
  6  7  1  0
  4  8  1  6
  8  9  1  0
  9 10  1  0
 10 11  1  0
 10 12  1  0
 12 13  1  0
  1 14  1  0
  1 15  1  0
  1 16  1  0
  3 17  1  0
  3 18  1  0
  5 19  1  0
  5 20  1  0
  5 21  1  0
  6 22  1  0
  6 23  1  0
  7 24  1  0
  7 25  1  0
  9 26  1  0
  9 27  1  0
 10 28  1  6
 11 29  1  0
 12 30  1  0
 12 31  1  0
 13 32  1  0
M  END
$$$$

     RDKit          3D

 32 31  0  0  0  0  0  0  0  0999 V2000
   -3.0892    1.6526   -0.9418 C   0  0  0  0  0  0  0  0  0  0  0  0
   -2.2271    0.8218   -1.4894 O   0  0  0  0  0  0  0  0  0  0  0  0
   -0.9883    0.5236   -1.0792 C   0  0  0  0  0  0  0  0  0  0  0  0
   -0.8587   -0.1090    0.2501 C   0  0  1  0  0  0  0  0  0  0  0  0
   -1.4439    0.8437    1.3301 C   0  0  0  0  0  0  0  0  0  0  0  0
   -1.8518   -1.2980    0.2417 C   0  0  0  0  0  0  0  0  0  0  0  0
   -1.2876   -2.3323   -0.6101 N   0  0  0  0  0  0  0  0  0  0  0  0
    0.2443   -0.5578    0.7092 O   0  0  0  0  0  0  0  0  0  0  0  0
    1.4325   -0.4342    1.0848 C   0  0  0  0  0  0  0  0  0  0  0  0
    2.3973    0.0594    0.0296 C   0  0  1  0  0  0  0  0  0  0  0  0
    2.1682    1.3026   -0.4632 O   0  0  0  0  0  0  0  0  0  0  0  0
    3.8379   -0.1059    0.4643 C   0  0  0  0  0  0  0  0  0  0  0  0
    3.9761   -1.4002    0.9511 O   0  0  0  0  0  0  0  0  0  0  0  0
   -4.0508    1.7133   -1.5883 H   0  0  0  0  0  0  0  0  0  0  0  0
   -3.5400    1.2340    0.0033 H   0  0  0  0  0  0  0  0  0  0  0  0
   -2.7843    2.7128   -0.8422 H   0  0  0  0  0  0  0  0  0  0  0  0
   -0.5605   -0.1765   -1.8749 H   0  0  0  0  0  0  0  0  0  0  0  0
   -0.3196    1.4219   -1.2151 H   0  0  0  0  0  0  0  0  0  0  0  0
   -2.3357    0.3916    1.7498 H   0  0  0  0  0  0  0  0  0  0  0  0
   -1.5143    1.8509    0.9402 H   0  0  0  0  0  0  0  0  0  0  0  0
   -0.7011    0.8522    2.1963 H   0  0  0  0  0  0  0  0  0  0  0  0
   -2.8058   -1.0104   -0.1949 H   0  0  0  0  0  0  0  0  0  0  0  0
   -1.9255   -1.7363    1.2639 H   0  0  0  0  0  0  0  0  0  0  0  0
   -0.4314   -2.0569   -1.1005 H   0  0  0  0  0  0  0  0  0  0  0  0
   -1.9978   -2.7149   -1.2428 H   0  0  0  0  0  0  0  0  0  0  0  0
    1.6608    0.0856    2.0736 H   0  0  0  0  0  0  0  0  0  0  0  0
    1.8772   -1.4755    1.3398 H   0  0  0  0  0  0  0  0  0  0  0  0
    2.2666   -0.6614   -0.8338 H   0  0  0  0  0  0  0  0  0  0  0  0
    2.1572    1.3423   -1.4441 H   0  0  0  0  0  0  0  0  0  0  0  0
    4.4504   -0.0555   -0.4756 H   0  0  0  0  0  0  0  0  0  0  0  0
    4.1332    0.6730    1.1653 H   0  0  0  0  0  0  0  0  0  0  0  0
    4.1118   -1.3564    1.9237 H   0  0  0  0  0  0  0  0  0  0  0  0
  1  2  1  0
  2  3  1  0
  3  4  1  0
  4  5  1  0
  4  6  1  0
  6  7  1  0
  4  8  1  1
  8  9  1  0
  9 10  1  0
 10 11  1  0
 10 12  1  0
 12 13  1  0
  1 14  1  0
  1 15  1  0
  1 16  1  0
  3 17  1  0
  3 18  1  0
  5 19  1  0
  5 20  1  0
  5 21  1  0
  6 22  1  0
  6 23  1  0
  7 24  1  0
  7 25  1  0
  9 26  1  0
  9 27  1  0
 10 28  1  6
 11 29  1  0
 12 30  1  0
 12 31  1  0
 13 32  1  0
M  END
$$$$

     RDKit          3D

 32 31  0  0  0  0  0  0  0  0999 V2000
   -1.1897   -2.4184    1.1974 C   0  0  0  0  0  0  0  0  0  0  0  0
   -2.1722   -1.6522    0.6108 O   0  0  0  0  0  0  0  0  0  0  0  0
   -2.1754   -0.3190    0.8445 C   0  0  0  0  0  0  0  0  0  0  0  0
   -0.9259    0.4480    0.3853 C   0  0  1  0  0  0  0  0  0  0  0  0
   -0.9349    0.3431   -1.1231 C   0  0  0  0  0  0  0  0  0  0  0  0
   -1.1708    1.9531    0.6499 C   0  0  0  0  0  0  0  0  0  0  0  0
   -2.3013    2.4207   -0.0797 N   0  0  0  0  0  0  0  0  0  0  0  0
    0.1203   -0.0258    1.0480 O   0  0  0  0  0  0  0  0  0  0  0  0
    1.3730    0.3801    0.9697 C   0  0  0  0  0  0  0  0  0  0  0  0
    2.0946    0.2179   -0.3390 C   0  0  1  0  0  0  0  0  0  0  0  0
    3.4058    0.7657   -0.1926 O   0  0  0  0  0  0  0  0  0  0  0  0
    2.3506   -1.2333   -0.7050 C   0  0  0  0  0  0  0  0  0  0  0  0
    3.0773   -1.8814    0.3085 O   0  0  0  0  0  0  0  0  0  0  0  0
   -1.3849   -3.4923    0.9175 H   0  0  0  0  0  0  0  0  0  0  0  0
   -1.1265   -2.2867    2.2852 H   0  0  0  0  0  0  0  0  0  0  0  0
   -0.2116   -2.2062    0.7076 H   0  0  0  0  0  0  0  0  0  0  0  0
   -2.3001   -0.1898    1.9645 H   0  0  0  0  0  0  0  0  0  0  0  0
   -3.0919    0.1537    0.4364 H   0  0  0  0  0  0  0  0  0  0  0  0
   -2.0215    0.2612   -1.4549 H   0  0  0  0  0  0  0  0  0  0  0  0
   -0.6244    1.3175   -1.6076 H   0  0  0  0  0  0  0  0  0  0  0  0
   -0.4146   -0.5101   -1.5386 H   0  0  0  0  0  0  0  0  0  0  0  0
   -1.2729    2.1580    1.7138 H   0  0  0  0  0  0  0  0  0  0  0  0
   -0.2814    2.4587    0.2023 H   0  0  0  0  0  0  0  0  0  0  0  0
   -2.0969    3.0219   -0.8868 H   0  0  0  0  0  0  0  0  0  0  0  0
   -3.1122    2.7051    0.4922 H   0  0  0  0  0  0  0  0  0  0  0  0
    1.5927    1.4142    1.3424 H   0  0  0  0  0  0  0  0  0  0  0  0
    1.9762   -0.2535    1.7058 H   0  0  0  0  0  0  0  0  0  0  0  0
    1.5960    0.7083   -1.1746 H   0  0  0  0  0  0  0  0  0  0  0  0
    3.3162    1.4745    0.4748 H   0  0  0  0  0  0  0  0  0  0  0  0
    1.4466   -1.8039   -0.9539 H   0  0  0  0  0  0  0  0  0  0  0  0
    3.0078   -1.2242   -1.5902 H   0  0  0  0  0  0  0  0  0  0  0  0
    3.4520   -2.7048   -0.1225 H   0  0  0  0  0  0  0  0  0  0  0  0
  1  2  1  0
  2  3  1  0
  3  4  1  0
  4  5  1  0
  4  6  1  0
  6  7  1  0
  4  8  1  1
  8  9  1  0
  9 10  1  0
 10 11  1  0
 10 12  1  0
 12 13  1  0
  1 14  1  0
  1 15  1  0
  1 16  1  0
  3 17  1  0
  3 18  1  0
  5 19  1  0
  5 20  1  0
  5 21  1  0
  6 22  1  0
  6 23  1  0
  7 24  1  0
  7 25  1  0
  9 26  1  0
  9 27  1  0
 10 28  1  6
 11 29  1  0
 12 30  1  0
 12 31  1  0
 13 32  1  0
M  END
$$$$

     RDKit          3D

 32 31  0  0  0  0  0  0  0  0999 V2000
    2.9963    2.1742   -0.1468 C   0  0  0  0  0  0  0  0  0  0  0  0
    1.8284    1.4858   -0.4775 O   0  0  0  0  0  0  0  0  0  0  0  0
    1.9352    0.2228    0.0314 C   0  0  0  0  0  0  0  0  0  0  0  0
    0.7903   -0.7036   -0.2019 C   0  0  1  0  0  0  0  0  0  0  0  0
    0.7046   -1.1432   -1.6535 C   0  0  0  0  0  0  0  0  0  0  0  0
    1.1580   -1.9954    0.5616 C   0  0  0  0  0  0  0  0  0  0  0  0
    1.2492   -1.7200    1.9851 N   0  0  0  0  0  0  0  0  0  0  0  0
   -0.4172   -0.3164    0.3086 O   0  0  0  0  0  0  0  0  0  0  0  0
   -0.9522    0.8555   -0.1252 C   0  0  0  0  0  0  0  0  0  0  0  0
   -2.2947    1.0156    0.6061 C   0  0  1  0  0  0  0  0  0  0  0  0
   -2.9168    2.1838    0.2289 O   0  0  0  0  0  0  0  0  0  0  0  0
   -3.1709   -0.1959    0.3497 C   0  0  0  0  0  0  0  0  0  0  0  0
   -3.4926   -0.3155   -1.0003 O   0  0  0  0  0  0  0  0  0  0  0  0
    3.0105    3.2019   -0.5108 H   0  0  0  0  0  0  0  0  0  0  0  0
    3.8779    1.5864   -0.5260 H   0  0  0  0  0  0  0  0  0  0  0  0
    3.0830    2.1125    0.9711 H   0  0  0  0  0  0  0  0  0  0  0  0
    2.8403   -0.2497   -0.4066 H   0  0  0  0  0  0  0  0  0  0  0  0
    2.1218    0.2783    1.1251 H   0  0  0  0  0  0  0  0  0  0  0  0
    0.3718   -0.3245   -2.3191 H   0  0  0  0  0  0  0  0  0  0  0  0
    1.7101   -1.4519   -1.9668 H   0  0  0  0  0  0  0  0  0  0  0  0
    0.0330   -2.0114   -1.7362 H   0  0  0  0  0  0  0  0  0  0  0  0
    2.1438   -2.3689    0.2294 H   0  0  0  0  0  0  0  0  0  0  0  0
    0.4030   -2.7719    0.3777 H   0  0  0  0  0  0  0  0  0  0  0  0
    0.8275   -2.5187    2.5187 H   0  0  0  0  0  0  0  0  0  0  0  0
    0.8004   -0.8151    2.2433 H   0  0  0  0  0  0  0  0  0  0  0  0
   -0.3781    1.7769    0.1645 H   0  0  0  0  0  0  0  0  0  0  0  0
   -1.1781    0.9257   -1.1891 H   0  0  0  0  0  0  0  0  0  0  0  0
   -2.0623    1.0386    1.6862 H   0  0  0  0  0  0  0  0  0  0  0  0
   -3.8843    2.0021    0.0710 H   0  0  0  0  0  0  0  0  0  0  0  0
   -4.0958   -0.1446    0.9567 H   0  0  0  0  0  0  0  0  0  0  0  0
   -2.6347   -1.1060    0.6728 H   0  0  0  0  0  0  0  0  0  0  0  0
   -4.4073   -0.7075   -1.0949 H   0  0  0  0  0  0  0  0  0  0  0  0
  1  2  1  0
  2  3  1  0
  3  4  1  0
  4  5  1  0
  4  6  1  0
  6  7  1  0
  4  8  1  1
  8  9  1  0
  9 10  1  0
 10 11  1  0
 10 12  1  0
 12 13  1  0
  1 14  1  0
  1 15  1  0
  1 16  1  0
  3 17  1  0
  3 18  1  0
  5 19  1  0
  5 20  1  0
  5 21  1  0
  6 22  1  0
  6 23  1  0
  7 24  1  0
  7 25  1  0
  9 26  1  0
  9 27  1  0
 10 28  1  1
 11 29  1  0
 12 30  1  0
 12 31  1  0
 13 32  1  0
M  END
$$$$

     RDKit          3D

 32 31  0  0  0  0  0  0  0  0999 V2000
   -3.4734    1.5343   -0.4748 C   0  0  0  0  0  0  0  0  0  0  0  0
   -2.7277    0.4965    0.1168 O   0  0  0  0  0  0  0  0  0  0  0  0
   -1.3759    0.8331    0.1681 C   0  0  0  0  0  0  0  0  0  0  0  0
   -0.6548   -0.3342    0.8154 C   0  0  1  0  0  0  0  0  0  0  0  0
   -1.2182   -0.4585    2.2225 C   0  0  0  0  0  0  0  0  0  0  0  0
   -0.9995   -1.5898    0.0019 C   0  0  0  0  0  0  0  0  0  0  0  0
   -2.4145   -1.7729   -0.1036 N   0  0  0  0  0  0  0  0  0  0  0  0
    0.6929   -0.1392    0.9313 O   0  0  0  0  0  0  0  0  0  0  0  0
    1.3818    0.0588   -0.2272 C   0  0  0  0  0  0  0  0  0  0  0  0
    2.8629    0.2585    0.1185 C   0  0  1  0  0  0  0  0  0  0  0  0
    3.3815   -0.8350    0.7649 O   0  0  0  0  0  0  0  0  0  0  0  0
    3.6516    0.5452   -1.1467 C   0  0  0  0  0  0  0  0  0  0  0  0
    4.9620    0.7927   -0.7868 O   0  0  0  0  0  0  0  0  0  0  0  0
   -3.1295    1.7368   -1.5147 H   0  0  0  0  0  0  0  0  0  0  0  0
   -3.2958    2.4630    0.0946 H   0  0  0  0  0  0  0  0  0  0  0  0
   -4.5446    1.2825   -0.5109 H   0  0  0  0  0  0  0  0  0  0  0  0
   -1.2181    1.7476    0.7487 H   0  0  0  0  0  0  0  0  0  0  0  0
   -1.0434    0.9318   -0.8940 H   0  0  0  0  0  0  0  0  0  0  0  0
   -0.6961    0.2994    2.8414 H   0  0  0  0  0  0  0  0  0  0  0  0
   -0.9904   -1.4723    2.6522 H   0  0  0  0  0  0  0  0  0  0  0  0
   -2.3010   -0.2443    2.2346 H   0  0  0  0  0  0  0  0  0  0  0  0
   -0.5109   -2.4730    0.4545 H   0  0  0  0  0  0  0  0  0  0  0  0
   -0.6090   -1.4359   -1.0253 H   0  0  0  0  0  0  0  0  0  0  0  0
   -2.7445   -2.7005    0.2398 H   0  0  0  0  0  0  0  0  0  0  0  0
   -2.7759   -1.5388   -1.0320 H   0  0  0  0  0  0  0  0  0  0  0  0
    1.3439   -0.9059   -0.8141 H   0  0  0  0  0  0  0  0  0  0  0  0
    1.0192    0.8376   -0.8902 H   0  0  0  0  0  0  0  0  0  0  0  0
    2.9460    1.1518    0.7676 H   0  0  0  0  0  0  0  0  0  0  0  0
    2.6694   -1.4401    1.1025 H   0  0  0  0  0  0  0  0  0  0  0  0
    3.6170   -0.3304   -1.8288 H   0  0  0  0  0  0  0  0  0  0  0  0
    3.2026    1.4290   -1.6249 H   0  0  0  0  0  0  0  0  0  0  0  0
    4.9926    1.2722    0.0795 H   0  0  0  0  0  0  0  0  0  0  0  0
  1  2  1  0
  2  3  1  0
  3  4  1  0
  4  5  1  0
  4  6  1  0
  6  7  1  0
  4  8  1  1
  8  9  1  0
  9 10  1  0
 10 11  1  0
 10 12  1  0
 12 13  1  0
  1 14  1  0
  1 15  1  0
  1 16  1  0
  3 17  1  0
  3 18  1  0
  5 19  1  0
  5 20  1  0
  5 21  1  0
  6 22  1  0
  6 23  1  0
  7 24  1  0
  7 25  1  0
  9 26  1  0
  9 27  1  0
 10 28  1  1
 11 29  1  0
 12 30  1  0
 12 31  1  0
 13 32  1  0
M  END
$$$$

     RDKit          3D

 32 31  0  0  0  0  0  0  0  0999 V2000
   -3.2929   -1.8507    0.5082 C   0  0  0  0  0  0  0  0  0  0  0  0
   -2.2404   -0.9547    0.6079 O   0  0  0  0  0  0  0  0  0  0  0  0
   -1.7881   -0.5619   -0.6638 C   0  0  0  0  0  0  0  0  0  0  0  0
   -0.6245    0.4283   -0.5122 C   0  0  1  0  0  0  0  0  0  0  0  0
   -0.2477    0.8708   -1.9067 C   0  0  0  0  0  0  0  0  0  0  0  0
   -1.1617    1.5880    0.2503 C   0  0  0  0  0  0  0  0  0  0  0  0
   -2.2440    2.2728   -0.4204 N   0  0  0  0  0  0  0  0  0  0  0  0
    0.3831   -0.1817    0.1663 O   0  0  0  0  0  0  0  0  0  0  0  0
    1.5073    0.5657    0.3842 C   0  0  0  0  0  0  0  0  0  0  0  0
    2.5610   -0.2195    1.1337 C   0  0  1  0  0  0  0  0  0  0  0  0
    2.1532   -0.6588    2.3671 O   0  0  0  0  0  0  0  0  0  0  0  0
    3.0888   -1.3712    0.2683 C   0  0  0  0  0  0  0  0  0  0  0  0
    4.1764   -1.9686    0.9026 O   0  0  0  0  0  0  0  0  0  0  0  0
   -3.0078   -2.7842   -0.0432 H   0  0  0  0  0  0  0  0  0  0  0  0
   -4.1577   -1.4097   -0.0546 H   0  0  0  0  0  0  0  0  0  0  0  0
   -3.6903   -2.0791    1.5174 H   0  0  0  0  0  0  0  0  0  0  0  0
   -1.4685   -1.4756   -1.2002 H   0  0  0  0  0  0  0  0  0  0  0  0
   -2.6373   -0.1181   -1.2001 H   0  0  0  0  0  0  0  0  0  0  0  0
   -1.1762    0.8674   -2.5136 H   0  0  0  0  0  0  0  0  0  0  0  0
    0.4398    0.1481   -2.3922 H   0  0  0  0  0  0  0  0  0  0  0  0
    0.1398    1.9104   -1.9299 H   0  0  0  0  0  0  0  0  0  0  0  0
   -0.3656    2.3695    0.3824 H   0  0  0  0  0  0  0  0  0  0  0  0
   -1.5092    1.3054    1.2643 H   0  0  0  0  0  0  0  0  0  0  0  0
   -2.4803    1.9101   -1.3442 H   0  0  0  0  0  0  0  0  0  0  0  0
   -2.1886    3.3070   -0.3437 H   0  0  0  0  0  0  0  0  0  0  0  0
    1.2830    1.4390    1.0616 H   0  0  0  0  0  0  0  0  0  0  0  0
    1.9743    0.8974   -0.5636 H   0  0  0  0  0  0  0  0  0  0  0  0
    3.4243    0.4647    1.2712 H   0  0  0  0  0  0  0  0  0  0  0  0
    2.3988    0.0352    3.0561 H   0  0  0  0  0  0  0  0  0  0  0  0
    2.3070   -2.1598    0.1556 H   0  0  0  0  0  0  0  0  0  0  0  0
    3.4233   -0.9688   -0.7024 H   0  0  0  0  0  0  0  0  0  0  0  0
    5.0207   -1.6174    0.4936 H   0  0  0  0  0  0  0  0  0  0  0  0
  1  2  1  0
  2  3  1  0
  3  4  1  0
  4  5  1  0
  4  6  1  0
  6  7  1  0
  4  8  1  1
  8  9  1  0
  9 10  1  0
 10 11  1  0
 10 12  1  0
 12 13  1  0
  1 14  1  0
  1 15  1  0
  1 16  1  0
  3 17  1  0
  3 18  1  0
  5 19  1  0
  5 20  1  0
  5 21  1  0
  6 22  1  0
  6 23  1  0
  7 24  1  0
  7 25  1  0
  9 26  1  0
  9 27  1  0
 10 28  1  1
 11 29  1  0
 12 30  1  0
 12 31  1  0
 13 32  1  0
M  END
$$$$

     RDKit          3D

 32 31  0  0  0  0  0  0  0  0999 V2000
    2.1438   -2.2833    0.6186 C   0  0  0  0  0  0  0  0  0  0  0  0
    1.8845   -1.7348   -0.5868 O   0  0  0  0  0  0  0  0  0  0  0  0
    1.9254   -0.4093   -0.7891 C   0  0  0  0  0  0  0  0  0  0  0  0
    0.9723    0.4551   -0.0029 C   0  0  1  0  0  0  0  0  0  0  0  0
    1.3477    0.5265    1.4418 C   0  0  0  0  0  0  0  0  0  0  0  0
    1.1563    1.8826   -0.5413 C   0  0  0  0  0  0  0  0  0  0  0  0
    0.9553    1.9651   -1.9538 N   0  0  0  0  0  0  0  0  0  0  0  0
   -0.3064    0.0008   -0.2680 O   0  0  0  0  0  0  0  0  0  0  0  0
   -1.3245    0.6553    0.3544 C   0  0  0  0  0  0  0  0  0  0  0  0
   -2.6250    0.0077   -0.0625 C   0  0  1  0  0  0  0  0  0  0  0  0
   -2.7747    0.0988   -1.4452 O   0  0  0  0  0  0  0  0  0  0  0  0
   -2.6607   -1.4610    0.3109 C   0  0  0  0  0  0  0  0  0  0  0  0
   -3.8714   -2.0304   -0.0718 O   0  0  0  0  0  0  0  0  0  0  0  0
    2.0746   -3.4250    0.5909 H   0  0  0  0  0  0  0  0  0  0  0  0
    3.1446   -2.0522    1.0604 H   0  0  0  0  0  0  0  0  0  0  0  0
    1.3784   -2.0256    1.3779 H   0  0  0  0  0  0  0  0  0  0  0  0
    2.9842    0.0182   -0.6975 H   0  0  0  0  0  0  0  0  0  0  0  0
    1.7398   -0.2484   -1.9047 H   0  0  0  0  0  0  0  0  0  0  0  0
    0.5914    0.0463    2.1019 H   0  0  0  0  0  0  0  0  0  0  0  0
    1.4857    1.6094    1.7770 H   0  0  0  0  0  0  0  0  0  0  0  0
    2.3715    0.1194    1.5552 H   0  0  0  0  0  0  0  0  0  0  0  0
    2.1942    2.1887   -0.2445 H   0  0  0  0  0  0  0  0  0  0  0  0
    0.4733    2.5943   -0.0381 H   0  0  0  0  0  0  0  0  0  0  0  0
    0.4347    2.8194   -2.1963 H   0  0  0  0  0  0  0  0  0  0  0  0
    1.8797    1.9971   -2.4409 H   0  0  0  0  0  0  0  0  0  0  0  0
   -1.3529    1.7044   -0.0211 H   0  0  0  0  0  0  0  0  0  0  0  0
   -1.2520    0.7192    1.4510 H   0  0  0  0  0  0  0  0  0  0  0  0
   -3.4829    0.4881    0.4583 H   0  0  0  0  0  0  0  0  0  0  0  0
   -2.5681    1.0393   -1.6910 H   0  0  0  0  0  0  0  0  0  0  0  0
   -2.5592   -1.4962    1.4318 H   0  0  0  0  0  0  0  0  0  0  0  0
   -1.7946   -1.9827   -0.1687 H   0  0  0  0  0  0  0  0  0  0  0  0
   -4.5649   -1.7868    0.5942 H   0  0  0  0  0  0  0  0  0  0  0  0
  1  2  1  0
  2  3  1  0
  3  4  1  0
  4  5  1  0
  4  6  1  0
  6  7  1  0
  4  8  1  1
  8  9  1  0
  9 10  1  0
 10 11  1  0
 10 12  1  0
 12 13  1  0
  1 14  1  0
  1 15  1  0
  1 16  1  0
  3 17  1  0
  3 18  1  0
  5 19  1  0
  5 20  1  0
  5 21  1  0
  6 22  1  0
  6 23  1  0
  7 24  1  0
  7 25  1  0
  9 26  1  0
  9 27  1  0
 10 28  1  1
 11 29  1  0
 12 30  1  0
 12 31  1  0
 13 32  1  0
M  END
$$$$

     RDKit          3D

 32 31  0  0  0  0  0  0  0  0999 V2000
   -3.8758    1.6431   -0.7734 C   0  0  0  0  0  0  0  0  0  0  0  0
   -3.0337    0.7576   -0.1035 O   0  0  0  0  0  0  0  0  0  0  0  0
   -1.7347    0.9353   -0.5600 C   0  0  0  0  0  0  0  0  0  0  0  0
   -0.7579    0.0019    0.1264 C   0  0  1  0  0  0  0  0  0  0  0  0
   -0.8403    0.3053    1.6119 C   0  0  0  0  0  0  0  0  0  0  0  0
   -1.1186   -1.4446   -0.0966 C   0  0  0  0  0  0  0  0  0  0  0  0
   -2.4159   -1.7756    0.4598 N   0  0  0  0  0  0  0  0  0  0  0  0
    0.4658    0.2791   -0.4093 O   0  0  0  0  0  0  0  0  0  0  0  0
    1.5238   -0.4395    0.0527 C   0  0  0  0  0  0  0  0  0  0  0  0
    2.7555    0.0694   -0.7060 C   0  0  1  0  0  0  0  0  0  0  0  0
    2.9491    1.4306   -0.4701 O   0  0  0  0  0  0  0  0  0  0  0  0
    4.0025   -0.6433   -0.2292 C   0  0  0  0  0  0  0  0  0  0  0  0
    4.1912   -0.4089    1.1118 O   0  0  0  0  0  0  0  0  0  0  0  0
   -3.6009    2.6957   -0.6151 H   0  0  0  0  0  0  0  0  0  0  0  0
   -3.8080    1.4607   -1.8767 H   0  0  0  0  0  0  0  0  0  0  0  0
   -4.9109    1.4238   -0.4404 H   0  0  0  0  0  0  0  0  0  0  0  0
   -1.4248    1.9668   -0.2857 H   0  0  0  0  0  0  0  0  0  0  0  0
   -1.6417    0.8561   -1.6564 H   0  0  0  0  0  0  0  0  0  0  0  0
   -0.8906   -0.6436    2.2195 H   0  0  0  0  0  0  0  0  0  0  0  0
    0.0480    0.8420    1.9744 H   0  0  0  0  0  0  0  0  0  0  0  0
   -1.7357    0.9149    1.8602 H   0  0  0  0  0  0  0  0  0  0  0  0
   -1.1020   -1.7165   -1.1514 H   0  0  0  0  0  0  0  0  0  0  0  0
   -0.3792   -2.0585    0.4551 H   0  0  0  0  0  0  0  0  0  0  0  0
   -2.7521   -2.6334   -0.0738 H   0  0  0  0  0  0  0  0  0  0  0  0
   -2.3271   -2.0814    1.4548 H   0  0  0  0  0  0  0  0  0  0  0  0
    1.7410   -0.3235    1.1281 H   0  0  0  0  0  0  0  0  0  0  0  0
    1.4891   -1.5285   -0.1579 H   0  0  0  0  0  0  0  0  0  0  0  0
    2.6239   -0.0602   -1.7958 H   0  0  0  0  0  0  0  0  0  0  0  0
    3.8885    1.7039   -0.5469 H   0  0  0  0  0  0  0  0  0  0  0  0
    3.8138   -1.7371   -0.3736 H   0  0  0  0  0  0  0  0  0  0  0  0
    4.8616   -0.3378   -0.8378 H   0  0  0  0  0  0  0  0  0  0  0  0
    3.9962    0.5463    1.3031 H   0  0  0  0  0  0  0  0  0  0  0  0
  1  2  1  0
  2  3  1  0
  3  4  1  0
  4  5  1  0
  4  6  1  0
  6  7  1  0
  4  8  1  6
  8  9  1  0
  9 10  1  0
 10 11  1  0
 10 12  1  0
 12 13  1  0
  1 14  1  0
  1 15  1  0
  1 16  1  0
  3 17  1  0
  3 18  1  0
  5 19  1  0
  5 20  1  0
  5 21  1  0
  6 22  1  0
  6 23  1  0
  7 24  1  0
  7 25  1  0
  9 26  1  0
  9 27  1  0
 10 28  1  6
 11 29  1  0
 12 30  1  0
 12 31  1  0
 13 32  1  0
M  END
$$$$
