
     RDKit          3D

 24 24  0  0  0  0  0  0  0  0999 V2000
   -3.3979    0.9032   -0.5471 C   0  0  0  0  0  0  0  0  0  0  0  0
   -2.8129    0.2583    0.6780 C   0  0  0  0  0  0  0  0  0  0  0  0
   -3.5897    0.2009    1.6773 O   0  0  0  0  0  0  0  0  0  0  0  0
   -1.5033   -0.2331    0.6839 N   0  0  0  0  0  0  0  0  0  0  0  0
   -0.6453   -0.8842    1.6337 C   0  0  0  0  0  0  0  0  0  0  0  0
    0.4898   -0.1286    0.9683 C   0  0  0  0  0  0  0  0  0  0  0  0
    1.7900   -0.8720    0.9041 C   0  0  0  0  0  0  0  0  0  0  0  0
    2.9886    0.1717    0.0949 S   0  0  0  0  0  6  0  0  0  0  0  0
    2.4819    0.5753   -1.5060 N   0  0  0  0  0  0  0  0  0  0  0  0
    4.2799   -0.6090   -0.0078 O   0  0  0  0  0  0  0  0  0  0  0  0
    3.2260    1.4313    0.8367 O   0  0  0  0  0  0  0  0  0  0  0  0
   -0.4156   -0.3149   -0.2491 C   0  0  0  0  0  0  0  0  0  0  0  0
   -4.4224    0.4937   -0.6462 H   0  0  0  0  0  0  0  0  0  0  0  0
   -2.7768    0.6876   -1.4497 H   0  0  0  0  0  0  0  0  0  0  0  0
   -3.4657    1.9964   -0.3930 H   0  0  0  0  0  0  0  0  0  0  0  0
   -0.8080   -0.6332    2.6970 H   0  0  0  0  0  0  0  0  0  0  0  0
   -0.6382   -1.9794    1.4459 H   0  0  0  0  0  0  0  0  0  0  0  0
    0.5298    0.9010    1.3502 H   0  0  0  0  0  0  0  0  0  0  0  0
    1.6305   -1.7723    0.2836 H   0  0  0  0  0  0  0  0  0  0  0  0
    2.1726   -1.0915    1.9069 H   0  0  0  0  0  0  0  0  0  0  0  0
    3.0812    0.1294   -2.2351 H   0  0  0  0  0  0  0  0  0  0  0  0
    2.3686    1.6040   -1.6328 H   0  0  0  0  0  0  0  0  0  0  0  0
   -0.3479    0.4987   -0.9934 H   0  0  0  0  0  0  0  0  0  0  0  0
   -0.2152   -1.3333   -0.6724 H   0  0  0  0  0  0  0  0  0  0  0  0
  1  2  1  0
  2  3  2  0
  2  4  1  0
  4  5  1  0
  5  6  1  0
  6  7  1  0
  7  8  1  0
  8  9  1  0
  8 10  2  0
  8 11  2  0
  6 12  1  0
 12  4  1  0
  1 13  1  0
  1 14  1  0
  1 15  1  0
  5 16  1  0
  5 17  1  0
  6 18  1  0
  7 19  1  0
  7 20  1  0
  9 21  1  0
  9 22  1  0
 12 23  1  0
 12 24  1  0
M  END
$$$$

     RDKit          3D

 24 24  0  0  0  0  0  0  0  0999 V2000
    3.6081    1.0748   -0.2055 C   0  0  0  0  0  0  0  0  0  0  0  0
    2.9085   -0.2118    0.0353 C   0  0  0  0  0  0  0  0  0  0  0  0
    3.6072   -1.2099    0.3295 O   0  0  0  0  0  0  0  0  0  0  0  0
    1.5101   -0.3704   -0.0486 N   0  0  0  0  0  0  0  0  0  0  0  0
    0.3556    0.4842   -0.3487 C   0  0  0  0  0  0  0  0  0  0  0  0
   -0.4851   -0.4572    0.4611 C   0  0  0  0  0  0  0  0  0  0  0  0
   -1.7859   -0.8715   -0.1618 C   0  0  0  0  0  0  0  0  0  0  0  0
   -2.8606    0.4895   -0.4907 S   0  0  0  0  0  6  0  0  0  0  0  0
   -3.2737    1.3581    0.9296 N   0  0  0  0  0  0  0  0  0  0  0  0
   -2.2696    1.4016   -1.5344 O   0  0  0  0  0  0  0  0  0  0  0  0
   -4.1345   -0.0601   -1.0719 O   0  0  0  0  0  0  0  0  0  0  0  0
    0.5966   -1.4642    0.1282 C   0  0  0  0  0  0  0  0  0  0  0  0
    3.1451    1.6526   -1.0327 H   0  0  0  0  0  0  0  0  0  0  0  0
    3.5532    1.7071    0.7167 H   0  0  0  0  0  0  0  0  0  0  0  0
    4.6749    0.9000   -0.4424 H   0  0  0  0  0  0  0  0  0  0  0  0
    0.4387    1.5096    0.0826 H   0  0  0  0  0  0  0  0  0  0  0  0
    0.1492    0.4751   -1.4284 H   0  0  0  0  0  0  0  0  0  0  0  0
   -0.4866   -0.2583    1.5367 H   0  0  0  0  0  0  0  0  0  0  0  0
   -1.6182   -1.4175   -1.0924 H   0  0  0  0  0  0  0  0  0  0  0  0
   -2.3042   -1.5491    0.5485 H   0  0  0  0  0  0  0  0  0  0  0  0
   -4.0866    0.9462    1.3966 H   0  0  0  0  0  0  0  0  0  0  0  0
   -2.4585    1.5561    1.5494 H   0  0  0  0  0  0  0  0  0  0  0  0
    0.8032   -2.1413    0.9823 H   0  0  0  0  0  0  0  0  0  0  0  0
    0.4130   -1.9739   -0.8390 H   0  0  0  0  0  0  0  0  0  0  0  0
  1  2  1  0
  2  3  2  0
  2  4  1  0
  4  5  1  0
  5  6  1  0
  6  7  1  0
  7  8  1  0
  8  9  1  0
  8 10  2  0
  8 11  2  0
  6 12  1  0
 12  4  1  0
  1 13  1  0
  1 14  1  0
  1 15  1  0
  5 16  1  0
  5 17  1  0
  6 18  1  0
  7 19  1  0
  7 20  1  0
  9 21  1  0
  9 22  1  0
 12 23  1  0
 12 24  1  0
M  END
$$$$

     RDKit          3D

 24 24  0  0  0  0  0  0  0  0999 V2000
   -3.7869   -0.0632    0.9897 C   0  0  0  0  0  0  0  0  0  0  0  0
   -2.9153   -0.7344   -0.0108 C   0  0  0  0  0  0  0  0  0  0  0  0
   -3.4664   -1.5086   -0.8275 O   0  0  0  0  0  0  0  0  0  0  0  0
   -1.5210   -0.4894   -0.0164 N   0  0  0  0  0  0  0  0  0  0  0  0
   -0.4462   -0.9872   -0.8512 C   0  0  0  0  0  0  0  0  0  0  0  0
    0.6011   -0.4342    0.0541 C   0  0  0  0  0  0  0  0  0  0  0  0
    1.5308    0.4935   -0.6991 C   0  0  0  0  0  0  0  0  0  0  0  0
    2.7667    1.1258    0.4401 S   0  0  0  0  0  6  0  0  0  0  0  0
    3.6557   -0.2104    1.0926 N   0  0  0  0  0  0  0  0  0  0  0  0
    3.7014    2.0145   -0.2931 O   0  0  0  0  0  0  0  0  0  0  0  0
    2.0897    1.8566    1.5548 O   0  0  0  0  0  0  0  0  0  0  0  0
   -0.5653    0.2937    0.7239 C   0  0  0  0  0  0  0  0  0  0  0  0
   -4.0696   -0.7512    1.8139 H   0  0  0  0  0  0  0  0  0  0  0  0
   -3.2932    0.8585    1.3730 H   0  0  0  0  0  0  0  0  0  0  0  0
   -4.6941    0.2773    0.4345 H   0  0  0  0  0  0  0  0  0  0  0  0
   -0.5083   -0.5365   -1.8663 H   0  0  0  0  0  0  0  0  0  0  0  0
   -0.4462   -2.0968   -0.9255 H   0  0  0  0  0  0  0  0  0  0  0  0
    1.1246   -1.1583    0.7046 H   0  0  0  0  0  0  0  0  0  0  0  0
    2.0429   -0.0184   -1.5395 H   0  0  0  0  0  0  0  0  0  0  0  0
    0.9754    1.3458   -1.1349 H   0  0  0  0  0  0  0  0  0  0  0  0
    3.8833   -0.8321    0.2675 H   0  0  0  0  0  0  0  0  0  0  0  0
    4.5123    0.1353    1.5762 H   0  0  0  0  0  0  0  0  0  0  0  0
   -0.5666    1.3829    0.5254 H   0  0  0  0  0  0  0  0  0  0  0  0
   -0.6048    0.0368    1.8160 H   0  0  0  0  0  0  0  0  0  0  0  0
  1  2  1  0
  2  3  2  0
  2  4  1  0
  4  5  1  0
  5  6  1  0
  6  7  1  0
  7  8  1  0
  8  9  1  0
  8 10  2  0
  8 11  2  0
  6 12  1  0
 12  4  1  0
  1 13  1  0
  1 14  1  0
  1 15  1  0
  5 16  1  0
  5 17  1  0
  6 18  1  0
  7 19  1  0
  7 20  1  0
  9 21  1  0
  9 22  1  0
 12 23  1  0
 12 24  1  0
M  END
$$$$

     RDKit          3D

 24 24  0  0  0  0  0  0  0  0999 V2000
   -3.9180    0.2130    0.2669 C   0  0  0  0  0  0  0  0  0  0  0  0
   -2.8682   -0.6726   -0.2702 C   0  0  0  0  0  0  0  0  0  0  0  0
   -3.2326   -1.8243   -0.6642 O   0  0  0  0  0  0  0  0  0  0  0  0
   -1.5008   -0.2958   -0.3611 N   0  0  0  0  0  0  0  0  0  0  0  0
   -0.2740   -0.8717   -0.8062 C   0  0  0  0  0  0  0  0  0  0  0  0
    0.4062    0.4579   -0.7560 C   0  0  0  0  0  0  0  0  0  0  0  0
    1.6375    0.5632    0.0761 C   0  0  0  0  0  0  0  0  0  0  0  0
    2.9365   -0.5200   -0.4290 S   0  0  0  0  0  6  0  0  0  0  0  0
    4.2761   -0.2482    0.6573 N   0  0  0  0  0  0  0  0  0  0  0  0
    3.4034   -0.2082   -1.8078 O   0  0  0  0  0  0  0  0  0  0  0  0
    2.5062   -1.9463   -0.2618 O   0  0  0  0  0  0  0  0  0  0  0  0
   -0.8058    0.9356    0.0061 C   0  0  0  0  0  0  0  0  0  0  0  0
   -3.4023    1.1113    0.6810 H   0  0  0  0  0  0  0  0  0  0  0  0
   -4.4570   -0.2452    1.1225 H   0  0  0  0  0  0  0  0  0  0  0  0
   -4.6150    0.5846   -0.5033 H   0  0  0  0  0  0  0  0  0  0  0  0
   -0.3976   -1.2883   -1.8335 H   0  0  0  0  0  0  0  0  0  0  0  0
    0.1965   -1.6201   -0.1654 H   0  0  0  0  0  0  0  0  0  0  0  0
    0.4582    0.9769   -1.7525 H   0  0  0  0  0  0  0  0  0  0  0  0
    1.9677    1.6218    0.0692 H   0  0  0  0  0  0  0  0  0  0  0  0
    1.3538    0.2847    1.1318 H   0  0  0  0  0  0  0  0  0  0  0  0
    3.9513   -0.6409    1.5844 H   0  0  0  0  0  0  0  0  0  0  0  0
    4.3874    0.8064    0.7373 H   0  0  0  0  0  0  0  0  0  0  0  0
   -0.7054    0.9938    1.0968 H   0  0  0  0  0  0  0  0  0  0  0  0
   -1.3040    1.8322   -0.4072 H   0  0  0  0  0  0  0  0  0  0  0  0
  1  2  1  0
  2  3  2  0
  2  4  1  0
  4  5  1  0
  5  6  1  0
  6  7  1  0
  7  8  1  0
  8  9  1  0
  8 10  2  0
  8 11  2  0
  6 12  1  0
 12  4  1  0
  1 13  1  0
  1 14  1  0
  1 15  1  0
  5 16  1  0
  5 17  1  0
  6 18  1  0
  7 19  1  0
  7 20  1  0
  9 21  1  0
  9 22  1  0
 12 23  1  0
 12 24  1  0
M  END
$$$$

     RDKit          3D

 24 24  0  0  0  0  0  0  0  0999 V2000
    3.4658   -1.0150    0.4933 C   0  0  0  0  0  0  0  0  0  0  0  0
    2.9180    0.2223   -0.1081 C   0  0  0  0  0  0  0  0  0  0  0  0
    3.6948    1.1409   -0.4615 O   0  0  0  0  0  0  0  0  0  0  0  0
    1.5290    0.4072   -0.3006 N   0  0  0  0  0  0  0  0  0  0  0  0
    0.3789   -0.4287   -0.0139 C   0  0  0  0  0  0  0  0  0  0  0  0
   -0.5179    0.7587   -0.1657 C   0  0  0  0  0  0  0  0  0  0  0  0
   -1.7182    0.5479   -1.0576 C   0  0  0  0  0  0  0  0  0  0  0  0
   -2.6855   -0.7669   -0.3588 S   0  0  0  0  0  6  0  0  0  0  0  0
   -3.1689   -0.2878    1.2300 N   0  0  0  0  0  0  0  0  0  0  0  0
   -3.9028   -1.0242   -1.1968 O   0  0  0  0  0  0  0  0  0  0  0  0
   -1.8229   -1.9960   -0.3193 O   0  0  0  0  0  0  0  0  0  0  0  0
    0.6650    1.4343   -0.8319 C   0  0  0  0  0  0  0  0  0  0  0  0
    2.6101   -1.6009    0.9218 H   0  0  0  0  0  0  0  0  0  0  0  0
    4.1413   -0.8055    1.3490 H   0  0  0  0  0  0  0  0  0  0  0  0
    3.9356   -1.6771   -0.2623 H   0  0  0  0  0  0  0  0  0  0  0  0
    0.3869   -0.9260    0.9723 H   0  0  0  0  0  0  0  0  0  0  0  0
    0.3093   -1.1978   -0.8357 H   0  0  0  0  0  0  0  0  0  0  0  0
   -0.7391    1.2251    0.8093 H   0  0  0  0  0  0  0  0  0  0  0  0
   -1.4545    0.3955   -2.1025 H   0  0  0  0  0  0  0  0  0  0  0  0
   -2.3543    1.4666   -1.0014 H   0  0  0  0  0  0  0  0  0  0  0  0
   -2.9644    0.7142    1.3999 H   0  0  0  0  0  0  0  0  0  0  0  0
   -4.1673   -0.5360    1.4267 H   0  0  0  0  0  0  0  0  0  0  0  0
    0.6018    1.4845   -1.9334 H   0  0  0  0  0  0  0  0  0  0  0  0
    0.8592    2.4648   -0.4274 H   0  0  0  0  0  0  0  0  0  0  0  0
  1  2  1  0
  2  3  2  0
  2  4  1  0
  4  5  1  0
  5  6  1  0
  6  7  1  0
  7  8  1  0
  8  9  1  0
  8 10  2  0
  8 11  2  0
  6 12  1  0
 12  4  1  0
  1 13  1  0
  1 14  1  0
  1 15  1  0
  5 16  1  0
  5 17  1  0
  6 18  1  0
  7 19  1  0
  7 20  1  0
  9 21  1  0
  9 22  1  0
 12 23  1  0
 12 24  1  0
M  END
$$$$

     RDKit          3D

 24 24  0  0  0  0  0  0  0  0999 V2000
    3.8787    0.1089    0.6330 C   0  0  0  0  0  0  0  0  0  0  0  0
    2.5813    0.8209    0.9072 C   0  0  0  0  0  0  0  0  0  0  0  0
    2.6476    1.7372    1.7703 O   0  0  0  0  0  0  0  0  0  0  0  0
    1.3908    0.4739    0.2378 N   0  0  0  0  0  0  0  0  0  0  0  0
    0.0280    0.9360    0.2628 C   0  0  0  0  0  0  0  0  0  0  0  0
   -0.3869   -0.4794   -0.1024 C   0  0  0  0  0  0  0  0  0  0  0  0
   -1.4704   -0.5800   -1.1210 C   0  0  0  0  0  0  0  0  0  0  0  0
   -2.9724    0.2174   -0.5847 S   0  0  0  0  0  6  0  0  0  0  0  0
   -3.4628   -0.5891    0.8777 N   0  0  0  0  0  0  0  0  0  0  0  0
   -4.0766   -0.0004   -1.5785 O   0  0  0  0  0  0  0  0  0  0  0  0
   -2.7794    1.6740   -0.3878 O   0  0  0  0  0  0  0  0  0  0  0  0
    0.9992   -0.4866   -0.7615 C   0  0  0  0  0  0  0  0  0  0  0  0
    3.6757   -0.9015    0.2067 H   0  0  0  0  0  0  0  0  0  0  0  0
    4.4377    0.0185    1.5859 H   0  0  0  0  0  0  0  0  0  0  0  0
    4.5049    0.6611   -0.0847 H   0  0  0  0  0  0  0  0  0  0  0  0
   -0.2142    1.6057   -0.6111 H   0  0  0  0  0  0  0  0  0  0  0  0
   -0.3547    1.3045    1.2230 H   0  0  0  0  0  0  0  0  0  0  0  0
   -0.4679   -1.1642    0.7573 H   0  0  0  0  0  0  0  0  0  0  0  0
   -1.6363   -1.6473   -1.3446 H   0  0  0  0  0  0  0  0  0  0  0  0
   -1.1787   -0.0970   -2.0679 H   0  0  0  0  0  0  0  0  0  0  0  0
   -4.4718   -0.5260    1.0456 H   0  0  0  0  0  0  0  0  0  0  0  0
   -3.0633   -1.5493    0.9182 H   0  0  0  0  0  0  0  0  0  0  0  0
    0.9081   -0.0617   -1.7878 H   0  0  0  0  0  0  0  0  0  0  0  0
    1.4835   -1.4756   -0.7054 H   0  0  0  0  0  0  0  0  0  0  0  0
  1  2  1  0
  2  3  2  0
  2  4  1  0
  4  5  1  0
  5  6  1  0
  6  7  1  0
  7  8  1  0
  8  9  1  0
  8 10  2  0
  8 11  2  0
  6 12  1  0
 12  4  1  0
  1 13  1  0
  1 14  1  0
  1 15  1  0
  5 16  1  0
  5 17  1  0
  6 18  1  0
  7 19  1  0
  7 20  1  0
  9 21  1  0
  9 22  1  0
 12 23  1  0
 12 24  1  0
M  END
$$$$

     RDKit          3D

 24 24  0  0  0  0  0  0  0  0999 V2000
    3.8802    0.2951    0.7881 C   0  0  0  0  0  0  0  0  0  0  0  0
    3.0192   -0.2406   -0.2873 C   0  0  0  0  0  0  0  0  0  0  0  0
    3.5646   -0.9299   -1.1782 O   0  0  0  0  0  0  0  0  0  0  0  0
    1.6258    0.0376   -0.2777 N   0  0  0  0  0  0  0  0  0  0  0  0
    0.7063    0.7698    0.5671 C   0  0  0  0  0  0  0  0  0  0  0  0
   -0.3580   -0.2293    0.1617 C   0  0  0  0  0  0  0  0  0  0  0  0
   -1.7189    0.4055    0.0184 C   0  0  0  0  0  0  0  0  0  0  0  0
   -2.8352   -0.9223   -0.4614 S   0  0  0  0  0  6  0  0  0  0  0  0
   -4.3999   -0.2071   -0.6290 N   0  0  0  0  0  0  0  0  0  0  0  0
   -2.9056   -1.9498    0.6127 O   0  0  0  0  0  0  0  0  0  0  0  0
   -2.3950   -1.5181   -1.7824 O   0  0  0  0  0  0  0  0  0  0  0  0
    0.4689   -0.2768   -1.1030 C   0  0  0  0  0  0  0  0  0  0  0  0
    3.6072   -0.2314    1.7427 H   0  0  0  0  0  0  0  0  0  0  0  0
    3.6167    1.3785    0.9624 H   0  0  0  0  0  0  0  0  0  0  0  0
    4.9502    0.2194    0.5570 H   0  0  0  0  0  0  0  0  0  0  0  0
    0.9452    0.7837    1.6424 H   0  0  0  0  0  0  0  0  0  0  0  0
    0.4958    1.7640    0.1126 H   0  0  0  0  0  0  0  0  0  0  0  0
   -0.3387   -1.1784    0.7049 H   0  0  0  0  0  0  0  0  0  0  0  0
   -2.0741    0.7397    1.0154 H   0  0  0  0  0  0  0  0  0  0  0  0
   -1.7700    1.1701   -0.7511 H   0  0  0  0  0  0  0  0  0  0  0  0
   -4.2889    0.6015   -1.2944 H   0  0  0  0  0  0  0  0  0  0  0  0
   -4.6311    0.2176    0.3079 H   0  0  0  0  0  0  0  0  0  0  0  0
    0.5884   -1.2631   -1.5649 H   0  0  0  0  0  0  0  0  0  0  0  0
    0.2470    0.5641   -1.7877 H   0  0  0  0  0  0  0  0  0  0  0  0
  1  2  1  0
  2  3  2  0
  2  4  1  0
  4  5  1  0
  5  6  1  0
  6  7  1  0
  7  8  1  0
  8  9  1  0
  8 10  2  0
  8 11  2  0
  6 12  1  0
 12  4  1  0
  1 13  1  0
  1 14  1  0
  1 15  1  0
  5 16  1  0
  5 17  1  0
  6 18  1  0
  7 19  1  0
  7 20  1  0
  9 21  1  0
  9 22  1  0
 12 23  1  0
 12 24  1  0
M  END
$$$$

     RDKit          3D

 24 24  0  0  0  0  0  0  0  0999 V2000
   -2.7426   -1.5210    0.6802 C   0  0  0  0  0  0  0  0  0  0  0  0
   -2.5466   -0.0990    0.3195 C   0  0  0  0  0  0  0  0  0  0  0  0
   -3.3667    0.7716    0.6778 O   0  0  0  0  0  0  0  0  0  0  0  0
   -1.4010    0.2491   -0.4450 N   0  0  0  0  0  0  0  0  0  0  0  0
   -0.8760    1.4941   -0.9785 C   0  0  0  0  0  0  0  0  0  0  0  0
    0.4993    0.8707   -0.9209 C   0  0  0  0  0  0  0  0  0  0  0  0
    1.0971    1.1226    0.4625 C   0  0  0  0  0  0  0  0  0  0  0  0
    2.7107    0.3610    0.4517 S   0  0  0  0  0  6  0  0  0  0  0  0
    2.4926   -1.2992    0.1449 N   0  0  0  0  0  0  0  0  0  0  0  0
    3.5096    0.9902   -0.6584 O   0  0  0  0  0  0  0  0  0  0  0  0
    3.4309    0.6424    1.7336 O   0  0  0  0  0  0  0  0  0  0  0  0
   -0.2681   -0.4248   -1.0290 C   0  0  0  0  0  0  0  0  0  0  0  0
   -1.9179   -2.1555    0.3285 H   0  0  0  0  0  0  0  0  0  0  0  0
   -2.7969   -1.5901    1.7944 H   0  0  0  0  0  0  0  0  0  0  0  0
   -3.7019   -1.9205    0.2807 H   0  0  0  0  0  0  0  0  0  0  0  0
   -1.0183    2.3817   -0.3156 H   0  0  0  0  0  0  0  0  0  0  0  0
   -1.2104    1.6724   -2.0421 H   0  0  0  0  0  0  0  0  0  0  0  0
    1.1560    1.1000   -1.7559 H   0  0  0  0  0  0  0  0  0  0  0  0
    1.1856    2.2090    0.6722 H   0  0  0  0  0  0  0  0  0  0  0  0
    0.4809    0.6376    1.2310 H   0  0  0  0  0  0  0  0  0  0  0  0
    2.5125   -1.9004    0.9908 H   0  0  0  0  0  0  0  0  0  0  0  0
    3.0087   -1.6666   -0.6629 H   0  0  0  0  0  0  0  0  0  0  0  0
   -0.4112   -0.6907   -2.0973 H   0  0  0  0  0  0  0  0  0  0  0  0
    0.1736   -1.2346   -0.4114 H   0  0  0  0  0  0  0  0  0  0  0  0
  1  2  1  0
  2  3  2  0
  2  4  1  0
  4  5  1  0
  5  6  1  0
  6  7  1  0
  7  8  1  0
  8  9  1  0
  8 10  2  0
  8 11  2  0
  6 12  1  0
 12  4  1  0
  1 13  1  0
  1 14  1  0
  1 15  1  0
  5 16  1  0
  5 17  1  0
  6 18  1  0
  7 19  1  0
  7 20  1  0
  9 21  1  0
  9 22  1  0
 12 23  1  0
 12 24  1  0
M  END
$$$$
