
     RDKit          3D

 25 25  0  0  0  0  0  0  0  0999 V2000
    3.4405    0.6392   -0.3880 C   0  0  0  0  0  0  0  0  0  0  0  0
    2.5391   -0.2877    0.1691 O   0  0  0  0  0  0  0  0  0  0  0  0
    1.2707    0.2712   -0.0647 C   0  0  0  0  0  0  0  0  0  0  0  0
    0.1616   -0.5679    0.4561 C   0  0  0  0  0  0  0  0  0  0  0  0
   -1.1257    0.0359    0.2039 N   0  0  0  0  0  0  0  0  0  0  0  0
   -1.6954    0.2719   -1.0527 C   0  0  0  0  0  0  0  0  0  0  0  0
   -0.8794   -0.1715   -2.3813 S   0  0  0  0  0  0  0  0  0  0  0  0
   -2.9630    0.8764   -1.1652 N   0  0  0  0  0  0  0  0  0  0  0  0
   -3.6718    1.2496   -0.0403 N   0  0  0  0  0  0  0  0  0  0  0  0
    0.3264   -1.0667    1.8759 C   0  0  0  0  0  0  0  0  0  0  0  0
    0.2382   -2.3649    1.4254 O   0  0  0  0  0  0  0  0  0  0  0  0
    0.2633   -2.0280    0.0829 C   0  0  0  0  0  0  0  0  0  0  0  0
    3.1715    0.6999   -1.4684 H   0  0  0  0  0  0  0  0  0  0  0  0
    3.2748    1.6581    0.0238 H   0  0  0  0  0  0  0  0  0  0  0  0
    4.4883    0.3514   -0.2294 H   0  0  0  0  0  0  0  0  0  0  0  0
    1.2720    1.2669    0.4182 H   0  0  0  0  0  0  0  0  0  0  0  0
    1.2222    0.4174   -1.1538 H   0  0  0  0  0  0  0  0  0  0  0  0
   -1.6752    0.3201    1.0438 H   0  0  0  0  0  0  0  0  0  0  0  0
   -3.3738    1.0456   -2.1074 H   0  0  0  0  0  0  0  0  0  0  0  0
   -3.0614    1.7670    0.6305 H   0  0  0  0  0  0  0  0  0  0  0  0
   -4.5599    1.7197   -0.2228 H   0  0  0  0  0  0  0  0  0  0  0  0
   -0.5501   -0.7799    2.5085 H   0  0  0  0  0  0  0  0  0  0  0  0
    1.2765   -0.7499    2.3276 H   0  0  0  0  0  0  0  0  0  0  0  0
   -0.6226   -2.3303   -0.5021 H   0  0  0  0  0  0  0  0  0  0  0  0
    1.2334   -2.2435   -0.3897 H   0  0  0  0  0  0  0  0  0  0  0  0
  1  2  1  0
  2  3  1  0
  3  4  1  0
  4  5  1  0
  5  6  1  0
  6  7  2  0
  6  8  1  0
  8  9  1  0
  4 10  1  0
 10 11  1  0
 11 12  1  0
 12  4  1  0
  1 13  1  0
  1 14  1  0
  1 15  1  0
  3 16  1  0
  3 17  1  0
  5 18  1  0
  8 19  1  0
  9 20  1  0
  9 21  1  0
 10 22  1  0
 10 23  1  0
 12 24  1  0
 12 25  1  0
M  END
$$$$

     RDKit          3D

 25 25  0  0  0  0  0  0  0  0999 V2000
    2.7632   -1.7322   -0.2062 C   0  0  0  0  0  0  0  0  0  0  0  0
    1.9029   -0.8177    0.3596 O   0  0  0  0  0  0  0  0  0  0  0  0
    1.2936   -0.0615   -0.6668 C   0  0  0  0  0  0  0  0  0  0  0  0
    0.3777    0.9077   -0.0072 C   0  0  0  0  0  0  0  0  0  0  0  0
   -0.6560    0.3185    0.7847 N   0  0  0  0  0  0  0  0  0  0  0  0
   -1.6848   -0.4418    0.1861 C   0  0  0  0  0  0  0  0  0  0  0  0
   -1.7103   -0.6270   -1.4369 S   0  0  0  0  0  0  0  0  0  0  0  0
   -2.7259   -1.0531    0.9216 N   0  0  0  0  0  0  0  0  0  0  0  0
   -3.7176   -1.7913    0.2998 N   0  0  0  0  0  0  0  0  0  0  0  0
   -0.0832    2.0546   -0.8882 C   0  0  0  0  0  0  0  0  0  0  0  0
    1.1436    2.6769   -0.6212 O   0  0  0  0  0  0  0  0  0  0  0  0
    1.1079    2.0667    0.6338 C   0  0  0  0  0  0  0  0  0  0  0  0
    2.1956   -2.4221   -0.8930 H   0  0  0  0  0  0  0  0  0  0  0  0
    3.1607   -2.3876    0.6128 H   0  0  0  0  0  0  0  0  0  0  0  0
    3.6188   -1.2775   -0.7102 H   0  0  0  0  0  0  0  0  0  0  0  0
    0.7685   -0.7466   -1.3499 H   0  0  0  0  0  0  0  0  0  0  0  0
    2.1051    0.5110   -1.2041 H   0  0  0  0  0  0  0  0  0  0  0  0
   -0.6459    0.4545    1.8154 H   0  0  0  0  0  0  0  0  0  0  0  0
   -2.7449   -0.9447    1.9494 H   0  0  0  0  0  0  0  0  0  0  0  0
   -3.4446   -2.2416   -0.5790 H   0  0  0  0  0  0  0  0  0  0  0  0
   -4.5604   -1.2180    0.1590 H   0  0  0  0  0  0  0  0  0  0  0  0
   -0.9328    2.6070   -0.4781 H   0  0  0  0  0  0  0  0  0  0  0  0
   -0.2136    1.7095   -1.9173 H   0  0  0  0  0  0  0  0  0  0  0  0
    0.5358    2.6612    1.3462 H   0  0  0  0  0  0  0  0  0  0  0  0
    2.1465    1.7951    0.9323 H   0  0  0  0  0  0  0  0  0  0  0  0
  1  2  1  0
  2  3  1  0
  3  4  1  0
  4  5  1  0
  5  6  1  0
  6  7  2  0
  6  8  1  0
  8  9  1  0
  4 10  1  0
 10 11  1  0
 11 12  1  0
 12  4  1  0
  1 13  1  0
  1 14  1  0
  1 15  1  0
  3 16  1  0
  3 17  1  0
  5 18  1  0
  8 19  1  0
  9 20  1  0
  9 21  1  0
 10 22  1  0
 10 23  1  0
 12 24  1  0
 12 25  1  0
M  END
$$$$

     RDKit          3D

 25 25  0  0  0  0  0  0  0  0999 V2000
   -2.9738    1.4517   -0.4761 C   0  0  0  0  0  0  0  0  0  0  0  0
   -1.7493    1.1683    0.1317 O   0  0  0  0  0  0  0  0  0  0  0  0
   -1.5040   -0.1936   -0.0474 C   0  0  0  0  0  0  0  0  0  0  0  0
   -0.2003   -0.6157    0.5721 C   0  0  0  0  0  0  0  0  0  0  0  0
    0.9889    0.0223    0.0853 N   0  0  0  0  0  0  0  0  0  0  0  0
    1.4585   -0.0532   -1.2363 C   0  0  0  0  0  0  0  0  0  0  0  0
    0.6375   -0.9175   -2.3337 S   0  0  0  0  0  0  0  0  0  0  0  0
    2.6352    0.6070   -1.6270 N   0  0  0  0  0  0  0  0  0  0  0  0
    3.3268    1.3477   -0.6433 N   0  0  0  0  0  0  0  0  0  0  0  0
   -0.1981   -0.6921    2.0822 C   0  0  0  0  0  0  0  0  0  0  0  0
    0.6002   -1.8368    1.9696 O   0  0  0  0  0  0  0  0  0  0  0  0
   -0.0848   -2.1096    0.7844 C   0  0  0  0  0  0  0  0  0  0  0  0
   -2.8576    1.1846   -1.5569 H   0  0  0  0  0  0  0  0  0  0  0  0
   -3.7424    0.7889   -0.0408 H   0  0  0  0  0  0  0  0  0  0  0  0
   -3.2243    2.5291   -0.3741 H   0  0  0  0  0  0  0  0  0  0  0  0
   -2.3360   -0.7854    0.4321 H   0  0  0  0  0  0  0  0  0  0  0  0
   -1.5339   -0.4830   -1.1101 H   0  0  0  0  0  0  0  0  0  0  0  0
    1.5595    0.5955    0.7669 H   0  0  0  0  0  0  0  0  0  0  0  0
    3.0254    0.5811   -2.5988 H   0  0  0  0  0  0  0  0  0  0  0  0
    3.5641    0.7937    0.1865 H   0  0  0  0  0  0  0  0  0  0  0  0
    4.0880    1.9150   -1.0436 H   0  0  0  0  0  0  0  0  0  0  0  0
   -1.1847   -0.9761    2.5041 H   0  0  0  0  0  0  0  0  0  0  0  0
    0.3013    0.1659    2.5892 H   0  0  0  0  0  0  0  0  0  0  0  0
    0.4964   -2.6489    0.0181 H   0  0  0  0  0  0  0  0  0  0  0  0
   -1.0925   -2.5300    0.9657 H   0  0  0  0  0  0  0  0  0  0  0  0
  1  2  1  0
  2  3  1  0
  3  4  1  0
  4  5  1  0
  5  6  1  0
  6  7  2  0
  6  8  1  0
  8  9  1  0
  4 10  1  0
 10 11  1  0
 11 12  1  0
 12  4  1  0
  1 13  1  0
  1 14  1  0
  1 15  1  0
  3 16  1  0
  3 17  1  0
  5 18  1  0
  8 19  1  0
  9 20  1  0
  9 21  1  0
 10 22  1  0
 10 23  1  0
 12 24  1  0
 12 25  1  0
M  END
$$$$

     RDKit          3D

 25 25  0  0  0  0  0  0  0  0999 V2000
   -2.8270    1.4799    1.3011 C   0  0  0  0  0  0  0  0  0  0  0  0
   -1.7295    1.2120    0.5167 O   0  0  0  0  0  0  0  0  0  0  0  0
   -1.5657   -0.1588    0.3888 C   0  0  0  0  0  0  0  0  0  0  0  0
   -0.3601   -0.5028   -0.4732 C   0  0  0  0  0  0  0  0  0  0  0  0
    0.8866   -0.0241    0.0043 N   0  0  0  0  0  0  0  0  0  0  0  0
    2.1623   -0.1445   -0.5466 C   0  0  0  0  0  0  0  0  0  0  0  0
    2.4291   -0.9236   -1.9543 S   0  0  0  0  0  0  0  0  0  0  0  0
    3.2901    0.4192    0.1108 N   0  0  0  0  0  0  0  0  0  0  0  0
    3.1799    1.1133    1.3255 N   0  0  0  0  0  0  0  0  0  0  0  0
   -0.7090   -0.4075   -1.9068 C   0  0  0  0  0  0  0  0  0  0  0  0
   -1.4381   -1.6149   -1.7564 O   0  0  0  0  0  0  0  0  0  0  0  0
   -0.4449   -1.9749   -0.8172 C   0  0  0  0  0  0  0  0  0  0  0  0
   -3.0111    2.5603    1.4412 H   0  0  0  0  0  0  0  0  0  0  0  0
   -2.7490    0.9685    2.2862 H   0  0  0  0  0  0  0  0  0  0  0  0
   -3.7708    1.0704    0.8362 H   0  0  0  0  0  0  0  0  0  0  0  0
   -2.4359   -0.6588   -0.0833 H   0  0  0  0  0  0  0  0  0  0  0  0
   -1.4497   -0.6079    1.3963 H   0  0  0  0  0  0  0  0  0  0  0  0
    0.8183    0.5105    0.9337 H   0  0  0  0  0  0  0  0  0  0  0  0
    4.2304    0.3309   -0.2945 H   0  0  0  0  0  0  0  0  0  0  0  0
    3.3882    0.4956    2.1386 H   0  0  0  0  0  0  0  0  0  0  0  0
    3.8449    1.9371    1.2661 H   0  0  0  0  0  0  0  0  0  0  0  0
    0.0483   -0.5813   -2.6756 H   0  0  0  0  0  0  0  0  0  0  0  0
   -1.4244    0.4208   -2.1856 H   0  0  0  0  0  0  0  0  0  0  0  0
   -0.8373   -2.5747    0.0291 H   0  0  0  0  0  0  0  0  0  0  0  0
    0.4743   -2.3447   -1.2811 H   0  0  0  0  0  0  0  0  0  0  0  0
  1  2  1  0
  2  3  1  0
  3  4  1  0
  4  5  1  0
  5  6  1  0
  6  7  2  0
  6  8  1  0
  8  9  1  0
  4 10  1  0
 10 11  1  0
 11 12  1  0
 12  4  1  0
  1 13  1  0
  1 14  1  0
  1 15  1  0
  3 16  1  0
  3 17  1  0
  5 18  1  0
  8 19  1  0
  9 20  1  0
  9 21  1  0
 10 22  1  0
 10 23  1  0
 12 24  1  0
 12 25  1  0
M  END
$$$$

     RDKit          3D

 25 25  0  0  0  0  0  0  0  0999 V2000
   -3.0629    0.1481   -0.2676 C   0  0  0  0  0  0  0  0  0  0  0  0
   -2.5028    1.1447    0.4471 O   0  0  0  0  0  0  0  0  0  0  0  0
   -1.3115    1.6759    0.1729 C   0  0  0  0  0  0  0  0  0  0  0  0
   -0.0900    0.7665    0.1869 C   0  0  0  0  0  0  0  0  0  0  0  0
   -0.1221   -0.2409   -0.8154 N   0  0  0  0  0  0  0  0  0  0  0  0
    0.7848   -1.2848   -1.0736 C   0  0  0  0  0  0  0  0  0  0  0  0
    0.4351   -2.3215   -2.3446 S   0  0  0  0  0  0  0  0  0  0  0  0
    1.9675   -1.5880   -0.4013 N   0  0  0  0  0  0  0  0  0  0  0  0
    2.7441   -2.6738   -0.7980 N   0  0  0  0  0  0  0  0  0  0  0  0
    0.2866    0.3483    1.5601 C   0  0  0  0  0  0  0  0  0  0  0  0
    1.3630    1.1825    1.5758 O   0  0  0  0  0  0  0  0  0  0  0  0
    1.1928    1.5297    0.2715 C   0  0  0  0  0  0  0  0  0  0  0  0
   -3.2026    0.3994   -1.3449 H   0  0  0  0  0  0  0  0  0  0  0  0
   -2.6498   -0.8661   -0.1557 H   0  0  0  0  0  0  0  0  0  0  0  0
   -4.1313    0.0275    0.1720 H   0  0  0  0  0  0  0  0  0  0  0  0
   -1.3423    2.1309   -0.8572 H   0  0  0  0  0  0  0  0  0  0  0  0
   -1.1331    2.5290    0.8979 H   0  0  0  0  0  0  0  0  0  0  0  0
   -0.9427   -0.1950   -1.5057 H   0  0  0  0  0  0  0  0  0  0  0  0
    2.3136   -1.0380    0.3897 H   0  0  0  0  0  0  0  0  0  0  0  0
    3.7430   -2.5761   -0.4875 H   0  0  0  0  0  0  0  0  0  0  0  0
    2.7403   -2.8032   -1.8241 H   0  0  0  0  0  0  0  0  0  0  0  0
   -0.5189    0.6802    2.2866 H   0  0  0  0  0  0  0  0  0  0  0  0
    0.4501   -0.7447    1.6993 H   0  0  0  0  0  0  0  0  0  0  0  0
    0.9973    2.6256    0.1165 H   0  0  0  0  0  0  0  0  0  0  0  0
    1.9919    1.1437   -0.4163 H   0  0  0  0  0  0  0  0  0  0  0  0
  1  2  1  0
  2  3  1  0
  3  4  1  0
  4  5  1  0
  5  6  1  0
  6  7  2  0
  6  8  1  0
  8  9  1  0
  4 10  1  0
 10 11  1  0
 11 12  1  0
 12  4  1  0
  1 13  1  0
  1 14  1  0
  1 15  1  0
  3 16  1  0
  3 17  1  0
  5 18  1  0
  8 19  1  0
  9 20  1  0
  9 21  1  0
 10 22  1  0
 10 23  1  0
 12 24  1  0
 12 25  1  0
M  END
$$$$

     RDKit          3D

 25 25  0  0  0  0  0  0  0  0999 V2000
   -2.7294    1.6797   -0.7336 C   0  0  0  0  0  0  0  0  0  0  0  0
   -1.7582    1.0228    0.0045 O   0  0  0  0  0  0  0  0  0  0  0  0
   -1.3915   -0.1961   -0.5425 C   0  0  0  0  0  0  0  0  0  0  0  0
   -0.3426   -0.8070    0.3385 C   0  0  0  0  0  0  0  0  0  0  0  0
    0.8720   -0.0628    0.5216 N   0  0  0  0  0  0  0  0  0  0  0  0
    1.7437    0.2629   -0.5545 C   0  0  0  0  0  0  0  0  0  0  0  0
    1.4081   -0.2033   -2.0722 S   0  0  0  0  0  0  0  0  0  0  0  0
    2.9283    1.0049   -0.2956 N   0  0  0  0  0  0  0  0  0  0  0  0
    3.2730    1.4323    0.9950 N   0  0  0  0  0  0  0  0  0  0  0  0
   -0.9614   -1.3724    1.5843 C   0  0  0  0  0  0  0  0  0  0  0  0
   -1.3063   -2.5050    0.8252 O   0  0  0  0  0  0  0  0  0  0  0  0
   -0.1072   -2.2882    0.1335 C   0  0  0  0  0  0  0  0  0  0  0  0
   -3.6616    1.1046   -0.8274 H   0  0  0  0  0  0  0  0  0  0  0  0
   -2.9902    2.6032   -0.1535 H   0  0  0  0  0  0  0  0  0  0  0  0
   -2.3616    2.0358   -1.7121 H   0  0  0  0  0  0  0  0  0  0  0  0
   -2.3088   -0.8357   -0.5264 H   0  0  0  0  0  0  0  0  0  0  0  0
   -1.0734   -0.1008   -1.5824 H   0  0  0  0  0  0  0  0  0  0  0  0
    1.1181    0.2492    1.4928 H   0  0  0  0  0  0  0  0  0  0  0  0
    3.5596    1.2433   -1.0604 H   0  0  0  0  0  0  0  0  0  0  0  0
    4.1308    0.9271    1.2705 H   0  0  0  0  0  0  0  0  0  0  0  0
    3.3789    2.4670    1.0343 H   0  0  0  0  0  0  0  0  0  0  0  0
   -1.8275   -0.7539    1.8950 H   0  0  0  0  0  0  0  0  0  0  0  0
   -0.2686   -1.6806    2.3807 H   0  0  0  0  0  0  0  0  0  0  0  0
   -0.0912   -2.6334   -0.9025 H   0  0  0  0  0  0  0  0  0  0  0  0
    0.7670   -2.5935    0.7595 H   0  0  0  0  0  0  0  0  0  0  0  0
  1  2  1  0
  2  3  1  0
  3  4  1  0
  4  5  1  0
  5  6  1  0
  6  7  2  0
  6  8  1  0
  8  9  1  0
  4 10  1  0
 10 11  1  0
 11 12  1  0
 12  4  1  0
  1 13  1  0
  1 14  1  0
  1 15  1  0
  3 16  1  0
  3 17  1  0
  5 18  1  0
  8 19  1  0
  9 20  1  0
  9 21  1  0
 10 22  1  0
 10 23  1  0
 12 24  1  0
 12 25  1  0
M  END
$$$$

     RDKit          3D

 25 25  0  0  0  0  0  0  0  0999 V2000
   -3.0675   -1.1651    1.1430 C   0  0  0  0  0  0  0  0  0  0  0  0
   -1.7778   -1.0987    0.6243 O   0  0  0  0  0  0  0  0  0  0  0  0
   -1.6191   -0.0167   -0.2313 C   0  0  0  0  0  0  0  0  0  0  0  0
   -0.2052    0.0456   -0.7923 C   0  0  0  0  0  0  0  0  0  0  0  0
    0.7822    0.1787    0.2549 N   0  0  0  0  0  0  0  0  0  0  0  0
    2.1661    0.2947    0.0564 C   0  0  0  0  0  0  0  0  0  0  0  0
    2.7667    0.2920   -1.4447 S   0  0  0  0  0  0  0  0  0  0  0  0
    3.0359    0.4171    1.1549 N   0  0  0  0  0  0  0  0  0  0  0  0
    2.6112    0.4328    2.4852 N   0  0  0  0  0  0  0  0  0  0  0  0
    0.0920   -0.9856   -1.8158 C   0  0  0  0  0  0  0  0  0  0  0  0
    0.3221   -0.0291   -2.7688 O   0  0  0  0  0  0  0  0  0  0  0  0
   -0.1165    0.9567   -1.9467 C   0  0  0  0  0  0  0  0  0  0  0  0
   -3.3161   -0.2426    1.7221 H   0  0  0  0  0  0  0  0  0  0  0  0
   -3.7833   -1.1871    0.2888 H   0  0  0  0  0  0  0  0  0  0  0  0
   -3.1866   -2.0864    1.7189 H   0  0  0  0  0  0  0  0  0  0  0  0
   -1.7933    0.9291    0.3196 H   0  0  0  0  0  0  0  0  0  0  0  0
   -2.3725   -0.0836   -1.0398 H   0  0  0  0  0  0  0  0  0  0  0  0
    0.4137    0.1878    1.2543 H   0  0  0  0  0  0  0  0  0  0  0  0
    4.0548    0.5015    0.9783 H   0  0  0  0  0  0  0  0  0  0  0  0
    1.8766   -0.3042    2.5860 H   0  0  0  0  0  0  0  0  0  0  0  0
    3.3779    0.3510    3.1597 H   0  0  0  0  0  0  0  0  0  0  0  0
    1.0371   -1.5592   -1.5745 H   0  0  0  0  0  0  0  0  0  0  0  0
   -0.7559   -1.6740   -2.0638 H   0  0  0  0  0  0  0  0  0  0  0  0
   -1.1382    1.3444   -2.2516 H   0  0  0  0  0  0  0  0  0  0  0  0
    0.5960    1.8270   -1.8169 H   0  0  0  0  0  0  0  0  0  0  0  0
  1  2  1  0
  2  3  1  0
  3  4  1  0
  4  5  1  0
  5  6  1  0
  6  7  2  0
  6  8  1  0
  8  9  1  0
  4 10  1  0
 10 11  1  0
 11 12  1  0
 12  4  1  0
  1 13  1  0
  1 14  1  0
  1 15  1  0
  3 16  1  0
  3 17  1  0
  5 18  1  0
  8 19  1  0
  9 20  1  0
  9 21  1  0
 10 22  1  0
 10 23  1  0
 12 24  1  0
 12 25  1  0
M  END
$$$$

     RDKit          3D

 25 25  0  0  0  0  0  0  0  0999 V2000
    2.3493    2.3135    1.1030 C   0  0  0  0  0  0  0  0  0  0  0  0
    1.2562    1.4514    1.1170 O   0  0  0  0  0  0  0  0  0  0  0  0
    1.5674    0.3820    0.2906 C   0  0  0  0  0  0  0  0  0  0  0  0
    0.4268   -0.6286    0.2358 C   0  0  0  0  0  0  0  0  0  0  0  0
   -0.7857   -0.0639   -0.2601 N   0  0  0  0  0  0  0  0  0  0  0  0
   -1.9516   -0.8104   -0.4622 C   0  0  0  0  0  0  0  0  0  0  0  0
   -1.9851   -2.4139   -0.1447 S   0  0  0  0  0  0  0  0  0  0  0  0
   -3.1330   -0.1557   -0.9631 N   0  0  0  0  0  0  0  0  0  0  0  0
   -3.1150    1.1935   -1.2407 N   0  0  0  0  0  0  0  0  0  0  0  0
    0.8873   -1.8633   -0.4824 C   0  0  0  0  0  0  0  0  0  0  0  0
    0.7082   -2.6604    0.6222 O   0  0  0  0  0  0  0  0  0  0  0  0
    0.3747   -1.5623    1.3819 C   0  0  0  0  0  0  0  0  0  0  0  0
    2.5671    2.6879    0.0735 H   0  0  0  0  0  0  0  0  0  0  0  0
    3.2803    1.7986    1.4588 H   0  0  0  0  0  0  0  0  0  0  0  0
    2.1662    3.1665    1.7869 H   0  0  0  0  0  0  0  0  0  0  0  0
    2.4914   -0.0834    0.6392 H   0  0  0  0  0  0  0  0  0  0  0  0
    1.7291    0.7630   -0.7303 H   0  0  0  0  0  0  0  0  0  0  0  0
   -0.7921    0.9730   -0.4828 H   0  0  0  0  0  0  0  0  0  0  0  0
   -3.9876   -0.7080   -1.1102 H   0  0  0  0  0  0  0  0  0  0  0  0
   -2.6950    1.7267   -0.4225 H   0  0  0  0  0  0  0  0  0  0  0  0
   -4.0834    1.5475   -1.3906 H   0  0  0  0  0  0  0  0  0  0  0  0
    1.9726   -1.8573   -0.7686 H   0  0  0  0  0  0  0  0  0  0  0  0
    0.2411   -2.1350   -1.3538 H   0  0  0  0  0  0  0  0  0  0  0  0
    1.1564   -1.4282    2.1674 H   0  0  0  0  0  0  0  0  0  0  0  0
   -0.6455   -1.6334    1.8388 H   0  0  0  0  0  0  0  0  0  0  0  0
  1  2  1  0
  2  3  1  0
  3  4  1  0
  4  5  1  0
  5  6  1  0
  6  7  2  0
  6  8  1  0
  8  9  1  0
  4 10  1  0
 10 11  1  0
 11 12  1  0
 12  4  1  0
  1 13  1  0
  1 14  1  0
  1 15  1  0
  3 16  1  0
  3 17  1  0
  5 18  1  0
  8 19  1  0
  9 20  1  0
  9 21  1  0
 10 22  1  0
 10 23  1  0
 12 24  1  0
 12 25  1  0
M  END
$$$$
