
     RDKit          3D

 29 30  0  0  0  0  0  0  0  0999 V2000
    2.5490    1.9881   -0.0499 C   0  0  0  0  0  0  0  0  0  0  0  0
    2.0929    0.9143   -0.7895 O   0  0  0  0  0  0  0  0  0  0  0  0
    1.6212   -0.0488    0.0894 C   0  0  2  0  0  0  0  0  0  0  0  0
    2.5850   -1.2624    0.0203 C   0  0  0  0  0  0  0  0  0  0  0  0
    1.6676   -2.3205    0.2041 O   0  0  0  0  0  0  0  0  0  0  0  0
    0.6460   -2.0451   -0.7061 C   0  0  0  0  0  0  0  0  0  0  0  0
    0.2920   -0.6140   -0.3341 C   0  0  1  0  0  0  0  0  0  0  0  0
   -0.6086   -0.6565    0.7563 N   0  0  0  0  0  0  0  0  0  0  0  0
   -1.8564    0.0050    0.5479 C   0  0  2  0  0  0  0  0  0  0  0  0
   -2.6575   -0.6448   -0.5716 C   0  0  0  0  0  0  0  0  0  0  0  0
   -3.4490    0.4798   -1.0225 N   0  0  0  0  0  0  0  0  0  0  0  0
   -2.5151    1.4511   -1.0676 O   0  0  0  0  0  0  0  0  0  0  0  0
   -1.8439    1.4319    0.1720 C   0  0  0  0  0  0  0  0  0  0  0  0
    2.9433    2.8151   -0.7113 H   0  0  0  0  0  0  0  0  0  0  0  0
    3.4287    1.6727    0.6069 H   0  0  0  0  0  0  0  0  0  0  0  0
    1.8139    2.4064    0.6424 H   0  0  0  0  0  0  0  0  0  0  0  0
    1.6691    0.3320    1.1095 H   0  0  0  0  0  0  0  0  0  0  0  0
    3.2738   -1.2226    0.8656 H   0  0  0  0  0  0  0  0  0  0  0  0
    3.0864   -1.3007   -0.9632 H   0  0  0  0  0  0  0  0  0  0  0  0
    1.0099   -2.1379   -1.7459 H   0  0  0  0  0  0  0  0  0  0  0  0
   -0.1909   -2.7317   -0.4870 H   0  0  0  0  0  0  0  0  0  0  0  0
   -0.1257   -0.0745   -1.2297 H   0  0  0  0  0  0  0  0  0  0  0  0
   -0.2079   -0.5859    1.6926 H   0  0  0  0  0  0  0  0  0  0  0  0
   -2.4676   -0.1270    1.4741 H   0  0  0  0  0  0  0  0  0  0  0  0
   -1.9831   -0.9300   -1.4098 H   0  0  0  0  0  0  0  0  0  0  0  0
   -3.2488   -1.4698   -0.1587 H   0  0  0  0  0  0  0  0  0  0  0  0
   -4.1358    0.7072   -0.2727 H   0  0  0  0  0  0  0  0  0  0  0  0
   -2.5123    2.0556    0.8442 H   0  0  0  0  0  0  0  0  0  0  0  0
   -0.8762    1.9128    0.0883 H   0  0  0  0  0  0  0  0  0  0  0  0
  1  2  1  0
  2  3  1  0
  3  4  1  0
  4  5  1  0
  5  6  1  0
  6  7  1  0
  7  8  1  0
  8  9  1  0
  9 10  1  0
 10 11  1  0
 11 12  1  0
 12 13  1  0
  7  3  1  0
 13  9  1  0
  1 14  1  0
  1 15  1  0
  1 16  1  0
  3 17  1  1
  4 18  1  0
  4 19  1  0
  6 20  1  0
  6 21  1  0
  7 22  1  6
  8 23  1  0
  9 24  1  1
 10 25  1  0
 10 26  1  0
 11 27  1  0
 13 28  1  0
 13 29  1  0
M  END
$$$$

     RDKit          3D

 29 30  0  0  0  0  0  0  0  0999 V2000
    1.6889    1.7003   -1.3939 C   0  0  0  0  0  0  0  0  0  0  0  0
    0.9652    0.5077   -1.5006 O   0  0  0  0  0  0  0  0  0  0  0  0
    1.3317   -0.4232   -0.5907 C   0  0  2  0  0  0  0  0  0  0  0  0
    2.1030   -1.5894   -1.2437 C   0  0  0  0  0  0  0  0  0  0  0  0
    2.1878   -2.5288   -0.2367 O   0  0  0  0  0  0  0  0  0  0  0  0
    1.2076   -2.3270    0.6940 C   0  0  0  0  0  0  0  0  0  0  0  0
    0.3076   -1.2121    0.1343 C   0  0  1  0  0  0  0  0  0  0  0  0
   -0.4074   -0.5357    1.0857 N   0  0  0  0  0  0  0  0  0  0  0  0
   -1.3266    0.4397    1.0128 C   0  0  2  0  0  0  0  0  0  0  0  0
   -2.6469    0.0814    0.2910 C   0  0  0  0  0  0  0  0  0  0  0  0
   -3.3427    1.3239    0.5136 N   0  0  0  0  0  0  0  0  0  0  0  0
   -2.4657    2.3222    0.6857 O   0  0  0  0  0  0  0  0  0  0  0  0
   -1.1668    1.7933    0.4580 C   0  0  0  0  0  0  0  0  0  0  0  0
    2.7737    1.5103   -1.5709 H   0  0  0  0  0  0  0  0  0  0  0  0
    1.5184    2.1808   -0.4103 H   0  0  0  0  0  0  0  0  0  0  0  0
    1.3401    2.3882   -2.1775 H   0  0  0  0  0  0  0  0  0  0  0  0
    2.1083    0.0387    0.0854 H   0  0  0  0  0  0  0  0  0  0  0  0
    3.1057   -1.2653   -1.5430 H   0  0  0  0  0  0  0  0  0  0  0  0
    1.5818   -2.0201   -2.0936 H   0  0  0  0  0  0  0  0  0  0  0  0
    0.6591   -3.2704    0.8488 H   0  0  0  0  0  0  0  0  0  0  0  0
    1.6746   -1.9483    1.6257 H   0  0  0  0  0  0  0  0  0  0  0  0
   -0.3082   -1.7087   -0.6775 H   0  0  0  0  0  0  0  0  0  0  0  0
   -0.1128   -0.7637    2.1030 H   0  0  0  0  0  0  0  0  0  0  0  0
   -1.7328    0.6182    2.0884 H   0  0  0  0  0  0  0  0  0  0  0  0
   -3.1543   -0.7690    0.7834 H   0  0  0  0  0  0  0  0  0  0  0  0
   -2.4831   -0.1152   -0.7808 H   0  0  0  0  0  0  0  0  0  0  0  0
   -3.8614    1.2329    1.4403 H   0  0  0  0  0  0  0  0  0  0  0  0
   -0.4742    2.4513    1.0098 H   0  0  0  0  0  0  0  0  0  0  0  0
   -1.0705    1.8879   -0.6409 H   0  0  0  0  0  0  0  0  0  0  0  0
  1  2  1  0
  2  3  1  0
  3  4  1  0
  4  5  1  0
  5  6  1  0
  6  7  1  0
  7  8  1  0
  8  9  1  0
  9 10  1  0
 10 11  1  0
 11 12  1  0
 12 13  1  0
  7  3  1  0
 13  9  1  0
  1 14  1  0
  1 15  1  0
  1 16  1  0
  3 17  1  1
  4 18  1  0
  4 19  1  0
  6 20  1  0
  6 21  1  0
  7 22  1  6
  8 23  1  0
  9 24  1  1
 10 25  1  0
 10 26  1  0
 11 27  1  0
 13 28  1  0
 13 29  1  0
M  END
$$$$

     RDKit          3D

 29 30  0  0  0  0  0  0  0  0999 V2000
    2.7814    1.7002    1.1306 C   0  0  0  0  0  0  0  0  0  0  0  0
    2.4655    1.2749   -0.1802 O   0  0  0  0  0  0  0  0  0  0  0  0
    1.9068    0.0215   -0.0667 C   0  0  2  0  0  0  0  0  0  0  0  0
    2.6509   -1.0082   -0.8825 C   0  0  0  0  0  0  0  0  0  0  0  0
    1.7506   -1.7580   -1.5829 O   0  0  0  0  0  0  0  0  0  0  0  0
    0.4779   -1.5117   -1.0756 C   0  0  0  0  0  0  0  0  0  0  0  0
    0.5198   -0.0429   -0.7207 C   0  0  1  0  0  0  0  0  0  0  0  0
   -0.4281    0.3836    0.2281 N   0  0  0  0  0  0  0  0  0  0  0  0
   -1.7802    0.4486   -0.1664 C   0  0  2  0  0  0  0  0  0  0  0  0
   -2.5979    0.9685    1.0110 C   0  0  0  0  0  0  0  0  0  0  0  0
   -3.2677   -0.2495    1.4296 N   0  0  0  0  0  0  0  0  0  0  0  0
   -3.7092   -0.7154    0.2145 O   0  0  0  0  0  0  0  0  0  0  0  0
   -2.4523   -0.8815   -0.4186 C   0  0  0  0  0  0  0  0  0  0  0  0
    3.2322    2.7040    1.0759 H   0  0  0  0  0  0  0  0  0  0  0  0
    1.8701    1.7141    1.7549 H   0  0  0  0  0  0  0  0  0  0  0  0
    3.5262    1.0202    1.5929 H   0  0  0  0  0  0  0  0  0  0  0  0
    1.8436   -0.3347    0.9861 H   0  0  0  0  0  0  0  0  0  0  0  0
    3.3080   -0.4875   -1.6400 H   0  0  0  0  0  0  0  0  0  0  0  0
    3.3324   -1.6113   -0.2229 H   0  0  0  0  0  0  0  0  0  0  0  0
   -0.2441   -1.6577   -1.8798 H   0  0  0  0  0  0  0  0  0  0  0  0
    0.3577   -2.1677   -0.2006 H   0  0  0  0  0  0  0  0  0  0  0  0
    0.5017    0.5537   -1.6296 H   0  0  0  0  0  0  0  0  0  0  0  0
   -0.2218    0.2407    1.2120 H   0  0  0  0  0  0  0  0  0  0  0  0
   -1.8990    1.1477   -1.0117 H   0  0  0  0  0  0  0  0  0  0  0  0
   -1.9643    1.4039    1.7956 H   0  0  0  0  0  0  0  0  0  0  0  0
   -3.3395    1.7189    0.6543 H   0  0  0  0  0  0  0  0  0  0  0  0
   -4.0587   -0.0764    2.0810 H   0  0  0  0  0  0  0  0  0  0  0  0
   -1.9654   -1.7024    0.1470 H   0  0  0  0  0  0  0  0  0  0  0  0
   -2.5966   -1.0955   -1.4841 H   0  0  0  0  0  0  0  0  0  0  0  0
  1  2  1  0
  2  3  1  0
  3  4  1  0
  4  5  1  0
  5  6  1  0
  6  7  1  0
  7  8  1  0
  8  9  1  0
  9 10  1  0
 10 11  1  0
 11 12  1  0
 12 13  1  0
  7  3  1  0
 13  9  1  0
  1 14  1  0
  1 15  1  0
  1 16  1  0
  3 17  1  1
  4 18  1  0
  4 19  1  0
  6 20  1  0
  6 21  1  0
  7 22  1  6
  8 23  1  0
  9 24  1  6
 10 25  1  0
 10 26  1  0
 11 27  1  0
 13 28  1  0
 13 29  1  0
M  END
$$$$

     RDKit          3D

 29 30  0  0  0  0  0  0  0  0999 V2000
    3.0478    1.6808   -0.8177 C   0  0  0  0  0  0  0  0  0  0  0  0
    2.4304    0.5607   -1.4004 O   0  0  0  0  0  0  0  0  0  0  0  0
    1.9116   -0.1834   -0.3948 C   0  0  2  0  0  0  0  0  0  0  0  0
    2.5523   -1.5837   -0.3128 C   0  0  0  0  0  0  0  0  0  0  0  0
    1.6160   -2.4030    0.2978 O   0  0  0  0  0  0  0  0  0  0  0  0
    0.4587   -1.7155    0.5145 C   0  0  0  0  0  0  0  0  0  0  0  0
    0.4707   -0.6136   -0.5674 C   0  0  1  0  0  0  0  0  0  0  0  0
   -0.4664    0.4394   -0.2833 N   0  0  0  0  0  0  0  0  0  0  0  0
   -1.7948   -0.0385    0.0734 C   0  0  2  0  0  0  0  0  0  0  0  0
   -2.8906    0.7794   -0.5617 C   0  0  0  0  0  0  0  0  0  0  0  0
   -3.7771    1.0624    0.5409 N   0  0  0  0  0  0  0  0  0  0  0  0
   -3.4596    0.2199    1.5539 O   0  0  0  0  0  0  0  0  0  0  0  0
   -2.0746    0.2128    1.5592 C   0  0  0  0  0  0  0  0  0  0  0  0
    3.4682    2.3606   -1.5881 H   0  0  0  0  0  0  0  0  0  0  0  0
    3.9024    1.2228   -0.2215 H   0  0  0  0  0  0  0  0  0  0  0  0
    2.4048    2.2256   -0.1250 H   0  0  0  0  0  0  0  0  0  0  0  0
    2.0132    0.2671    0.6203 H   0  0  0  0  0  0  0  0  0  0  0  0
    3.5155   -1.5562    0.2253 H   0  0  0  0  0  0  0  0  0  0  0  0
    2.7635   -1.8842   -1.3483 H   0  0  0  0  0  0  0  0  0  0  0  0
   -0.4697   -2.3088    0.4801 H   0  0  0  0  0  0  0  0  0  0  0  0
    0.5716   -1.1594    1.4845 H   0  0  0  0  0  0  0  0  0  0  0  0
    0.3032   -1.1390   -1.5275 H   0  0  0  0  0  0  0  0  0  0  0  0
   -0.6158    0.9616   -1.2050 H   0  0  0  0  0  0  0  0  0  0  0  0
   -1.9469   -1.1053   -0.2064 H   0  0  0  0  0  0  0  0  0  0  0  0
   -3.3889    0.2856   -1.4112 H   0  0  0  0  0  0  0  0  0  0  0  0
   -2.4538    1.7738   -0.8444 H   0  0  0  0  0  0  0  0  0  0  0  0
   -4.7686    1.0097    0.2968 H   0  0  0  0  0  0  0  0  0  0  0  0
   -1.6512   -0.5871    2.1841 H   0  0  0  0  0  0  0  0  0  0  0  0
   -1.6719    1.2157    1.7880 H   0  0  0  0  0  0  0  0  0  0  0  0
  1  2  1  0
  2  3  1  0
  3  4  1  0
  4  5  1  0
  5  6  1  0
  6  7  1  0
  7  8  1  0
  8  9  1  0
  9 10  1  0
 10 11  1  0
 11 12  1  0
 12 13  1  0
  7  3  1  0
 13  9  1  0
  1 14  1  0
  1 15  1  0
  1 16  1  0
  3 17  1  1
  4 18  1  0
  4 19  1  0
  6 20  1  0
  6 21  1  0
  7 22  1  6
  8 23  1  0
  9 24  1  1
 10 25  1  0
 10 26  1  0
 11 27  1  0
 13 28  1  0
 13 29  1  0
M  END
$$$$

     RDKit          3D

 29 30  0  0  0  0  0  0  0  0999 V2000
   -2.9172   -0.9825   -1.4679 C   0  0  0  0  0  0  0  0  0  0  0  0
   -2.2102    0.1858   -1.2445 O   0  0  0  0  0  0  0  0  0  0  0  0
   -1.8775    0.4212    0.0443 C   0  0  2  0  0  0  0  0  0  0  0  0
   -2.3310    1.7498    0.6045 C   0  0  0  0  0  0  0  0  0  0  0  0
   -1.6443    1.7641    1.8372 O   0  0  0  0  0  0  0  0  0  0  0  0
   -0.3864    1.2295    1.6235 C   0  0  0  0  0  0  0  0  0  0  0  0
   -0.3679    0.5931    0.2670 C   0  0  1  0  0  0  0  0  0  0  0  0
    0.2337   -0.6955    0.1957 N   0  0  0  0  0  0  0  0  0  0  0  0
    1.6564   -0.5642    0.4009 C   0  0  2  0  0  0  0  0  0  0  0  0
    2.3119    0.2847   -0.6909 C   0  0  0  0  0  0  0  0  0  0  0  0
    3.6574   -0.2296   -0.6268 N   0  0  0  0  0  0  0  0  0  0  0  0
    3.6376   -1.4899   -0.2397 O   0  0  0  0  0  0  0  0  0  0  0  0
    2.3724   -1.8855    0.0813 C   0  0  0  0  0  0  0  0  0  0  0  0
   -3.8848   -1.0031   -0.9186 H   0  0  0  0  0  0  0  0  0  0  0  0
   -3.1644   -1.0349   -2.5450 H   0  0  0  0  0  0  0  0  0  0  0  0
   -2.2912   -1.8672   -1.2320 H   0  0  0  0  0  0  0  0  0  0  0  0
   -2.2114   -0.3499    0.7406 H   0  0  0  0  0  0  0  0  0  0  0  0
   -3.3956    1.8053    0.8262 H   0  0  0  0  0  0  0  0  0  0  0  0
   -1.9230    2.6047    0.0346 H   0  0  0  0  0  0  0  0  0  0  0  0
    0.3740    2.0408    1.7409 H   0  0  0  0  0  0  0  0  0  0  0  0
   -0.1461    0.4934    2.4344 H   0  0  0  0  0  0  0  0  0  0  0  0
    0.0416    1.3334   -0.4497 H   0  0  0  0  0  0  0  0  0  0  0  0
    0.0414   -1.1111   -0.7196 H   0  0  0  0  0  0  0  0  0  0  0  0
    1.9399   -0.1544    1.3666 H   0  0  0  0  0  0  0  0  0  0  0  0
    2.2420    1.3622   -0.4766 H   0  0  0  0  0  0  0  0  0  0  0  0
    1.9165    0.0115   -1.7018 H   0  0  0  0  0  0  0  0  0  0  0  0
    4.1589    0.3413    0.0984 H   0  0  0  0  0  0  0  0  0  0  0  0
    1.8827   -2.2406   -0.8731 H   0  0  0  0  0  0  0  0  0  0  0  0
    2.2845   -2.6123    0.8903 H   0  0  0  0  0  0  0  0  0  0  0  0
  1  2  1  0
  2  3  1  0
  3  4  1  0
  4  5  1  0
  5  6  1  0
  6  7  1  0
  7  8  1  0
  8  9  1  0
  9 10  1  0
 10 11  1  0
 11 12  1  0
 12 13  1  0
  7  3  1  0
 13  9  1  0
  1 14  1  0
  1 15  1  0
  1 16  1  0
  3 17  1  1
  4 18  1  0
  4 19  1  0
  6 20  1  0
  6 21  1  0
  7 22  1  6
  8 23  1  0
  9 24  1  1
 10 25  1  0
 10 26  1  0
 11 27  1  0
 13 28  1  0
 13 29  1  0
M  END
$$$$

     RDKit          3D

 29 30  0  0  0  0  0  0  0  0999 V2000
   -3.1882    1.7521    0.6146 C   0  0  0  0  0  0  0  0  0  0  0  0
   -2.4533    0.6905    1.1900 O   0  0  0  0  0  0  0  0  0  0  0  0
   -1.9518   -0.0251    0.1303 C   0  0  2  0  0  0  0  0  0  0  0  0
   -2.5395   -1.4506    0.0461 C   0  0  0  0  0  0  0  0  0  0  0  0
   -1.7196   -2.0987   -0.8446 O   0  0  0  0  0  0  0  0  0  0  0  0
   -0.4813   -1.5214   -0.8209 C   0  0  0  0  0  0  0  0  0  0  0  0
   -0.5045   -0.3871    0.2156 C   0  0  1  0  0  0  0  0  0  0  0  0
    0.4475    0.6183   -0.1130 N   0  0  0  0  0  0  0  0  0  0  0  0
    1.7558    0.0914    0.0123 C   0  0  2  0  0  0  0  0  0  0  0  0
    2.7269    0.8398    0.8689 C   0  0  0  0  0  0  0  0  0  0  0  0
    4.0018    0.3422    0.3023 N   0  0  0  0  0  0  0  0  0  0  0  0
    3.8322    0.3004   -1.0313 O   0  0  0  0  0  0  0  0  0  0  0  0
    2.5107    0.0036   -1.2900 C   0  0  0  0  0  0  0  0  0  0  0  0
   -3.9723    1.2470    0.0200 H   0  0  0  0  0  0  0  0  0  0  0  0
   -3.5795    2.4172    1.4026 H   0  0  0  0  0  0  0  0  0  0  0  0
   -2.5306    2.2469   -0.1224 H   0  0  0  0  0  0  0  0  0  0  0  0
   -2.1784    0.4202   -0.8480 H   0  0  0  0  0  0  0  0  0  0  0  0
   -2.4214   -1.9179    1.0345 H   0  0  0  0  0  0  0  0  0  0  0  0
   -3.5936   -1.3982   -0.2901 H   0  0  0  0  0  0  0  0  0  0  0  0
   -0.3095   -0.9976   -1.8000 H   0  0  0  0  0  0  0  0  0  0  0  0
    0.3609   -2.2178   -0.6312 H   0  0  0  0  0  0  0  0  0  0  0  0
   -0.2254   -0.8626    1.1718 H   0  0  0  0  0  0  0  0  0  0  0  0
    0.2721    1.2251   -0.9012 H   0  0  0  0  0  0  0  0  0  0  0  0
    1.7485   -0.9620    0.4385 H   0  0  0  0  0  0  0  0  0  0  0  0
    2.7464    1.9505    0.6983 H   0  0  0  0  0  0  0  0  0  0  0  0
    2.7101    0.5620    1.9276 H   0  0  0  0  0  0  0  0  0  0  0  0
    4.0500   -0.6611    0.6139 H   0  0  0  0  0  0  0  0  0  0  0  0
    2.1064    0.7999   -1.9397 H   0  0  0  0  0  0  0  0  0  0  0  0
    2.3794   -1.0067   -1.7573 H   0  0  0  0  0  0  0  0  0  0  0  0
  1  2  1  0
  2  3  1  0
  3  4  1  0
  4  5  1  0
  5  6  1  0
  6  7  1  0
  7  8  1  0
  8  9  1  0
  9 10  1  0
 10 11  1  0
 11 12  1  0
 12 13  1  0
  7  3  1  0
 13  9  1  0
  1 14  1  0
  1 15  1  0
  1 16  1  0
  3 17  1  6
  4 18  1  0
  4 19  1  0
  6 20  1  0
  6 21  1  0
  7 22  1  1
  8 23  1  0
  9 24  1  1
 10 25  1  0
 10 26  1  0
 11 27  1  0
 13 28  1  0
 13 29  1  0
M  END
$$$$

     RDKit          3D

 29 30  0  0  0  0  0  0  0  0999 V2000
   -2.7012    2.0162    1.1979 C   0  0  0  0  0  0  0  0  0  0  0  0
   -2.3795    0.6640    1.3824 O   0  0  0  0  0  0  0  0  0  0  0  0
   -1.8710    0.1656    0.2040 C   0  0  2  0  0  0  0  0  0  0  0  0
   -2.7606   -0.9420   -0.3504 C   0  0  0  0  0  0  0  0  0  0  0  0
   -2.1793   -2.1023    0.1575 O   0  0  0  0  0  0  0  0  0  0  0  0
   -0.8471   -1.8869   -0.2795 C   0  0  0  0  0  0  0  0  0  0  0  0
   -0.5597   -0.5675    0.3873 C   0  0  1  0  0  0  0  0  0  0  0  0
    0.4666    0.1698   -0.2859 N   0  0  0  0  0  0  0  0  0  0  0  0
    1.7469    0.1106    0.3644 C   0  0  2  0  0  0  0  0  0  0  0  0
    2.6388    1.1450   -0.3000 C   0  0  0  0  0  0  0  0  0  0  0  0
    3.9342    0.5056   -0.3048 N   0  0  0  0  0  0  0  0  0  0  0  0
    3.8211   -0.7147    0.2176 O   0  0  0  0  0  0  0  0  0  0  0  0
    2.5135   -1.1502    0.0146 C   0  0  0  0  0  0  0  0  0  0  0  0
   -3.4680    2.0563    0.3683 H   0  0  0  0  0  0  0  0  0  0  0  0
   -1.8388    2.6553    0.9783 H   0  0  0  0  0  0  0  0  0  0  0  0
   -3.2671    2.4112    2.0798 H   0  0  0  0  0  0  0  0  0  0  0  0
   -1.8344    0.9629   -0.5559 H   0  0  0  0  0  0  0  0  0  0  0  0
   -2.5991   -0.9627   -1.4420 H   0  0  0  0  0  0  0  0  0  0  0  0
   -3.8025   -0.8193   -0.0404 H   0  0  0  0  0  0  0  0  0  0  0  0
   -0.9185   -1.7247   -1.3720 H   0  0  0  0  0  0  0  0  0  0  0  0
   -0.1887   -2.6956    0.0287 H   0  0  0  0  0  0  0  0  0  0  0  0
   -0.2835   -0.6787    1.4473 H   0  0  0  0  0  0  0  0  0  0  0  0
    0.5052    0.0069   -1.3095 H   0  0  0  0  0  0  0  0  0  0  0  0
    1.6290    0.2567    1.4320 H   0  0  0  0  0  0  0  0  0  0  0  0
    2.6326    2.0925    0.2721 H   0  0  0  0  0  0  0  0  0  0  0  0
    2.3415    1.2833   -1.3633 H   0  0  0  0  0  0  0  0  0  0  0  0
    4.5805    1.1154    0.2489 H   0  0  0  0  0  0  0  0  0  0  0  0
    2.3359   -1.9660    0.7299 H   0  0  0  0  0  0  0  0  0  0  0  0
    2.3533   -1.4067   -1.0338 H   0  0  0  0  0  0  0  0  0  0  0  0
  1  2  1  0
  2  3  1  0
  3  4  1  0
  4  5  1  0
  5  6  1  0
  6  7  1  0
  7  8  1  0
  8  9  1  0
  9 10  1  0
 10 11  1  0
 11 12  1  0
 12 13  1  0
  7  3  1  0
 13  9  1  0
  1 14  1  0
  1 15  1  0
  1 16  1  0
  3 17  1  6
  4 18  1  0
  4 19  1  0
  6 20  1  0
  6 21  1  0
  7 22  1  1
  8 23  1  0
  9 24  1  1
 10 25  1  0
 10 26  1  0
 11 27  1  0
 13 28  1  0
 13 29  1  0
M  END
$$$$

     RDKit          3D

 29 30  0  0  0  0  0  0  0  0999 V2000
    2.5421    2.2949   -0.0829 C   0  0  0  0  0  0  0  0  0  0  0  0
    2.5985    0.9319   -0.3182 O   0  0  0  0  0  0  0  0  0  0  0  0
    1.6760    0.2463    0.4885 C   0  0  2  0  0  0  0  0  0  0  0  0
    2.3397   -0.9823    0.9907 C   0  0  0  0  0  0  0  0  0  0  0  0
    2.4826   -1.7279   -0.1958 O   0  0  0  0  0  0  0  0  0  0  0  0
    1.3786   -1.5678   -0.9687 C   0  0  0  0  0  0  0  0  0  0  0  0
    0.6087   -0.3500   -0.4606 C   0  0  1  0  0  0  0  0  0  0  0  0
   -0.5505   -0.7417    0.2460 N   0  0  0  0  0  0  0  0  0  0  0  0
   -1.8016   -0.4708   -0.3631 C   0  0  2  0  0  0  0  0  0  0  0  0
   -2.1781    0.9528   -0.5131 C   0  0  0  0  0  0  0  0  0  0  0  0
   -3.3295    1.1073    0.3430 N   0  0  0  0  0  0  0  0  0  0  0  0
   -3.8946   -0.0755    0.5627 O   0  0  0  0  0  0  0  0  0  0  0  0
   -2.9657   -1.0629    0.3478 C   0  0  0  0  0  0  0  0  0  0  0  0
    1.4924    2.6432   -0.3901 H   0  0  0  0  0  0  0  0  0  0  0  0
    2.6164    2.5479    1.0011 H   0  0  0  0  0  0  0  0  0  0  0  0
    3.3114    2.8204   -0.6386 H   0  0  0  0  0  0  0  0  0  0  0  0
    1.1830    0.8627    1.2336 H   0  0  0  0  0  0  0  0  0  0  0  0
    1.7289   -1.5386    1.7073 H   0  0  0  0  0  0  0  0  0  0  0  0
    3.3637   -0.8063    1.4166 H   0  0  0  0  0  0  0  0  0  0  0  0
    0.7027   -2.4811   -0.8660 H   0  0  0  0  0  0  0  0  0  0  0  0
    1.6556   -1.4589   -2.0230 H   0  0  0  0  0  0  0  0  0  0  0  0
    0.4315    0.3671   -1.2817 H   0  0  0  0  0  0  0  0  0  0  0  0
   -0.4529   -1.6158    0.7551 H   0  0  0  0  0  0  0  0  0  0  0  0
   -1.7459   -0.9283   -1.4159 H   0  0  0  0  0  0  0  0  0  0  0  0
   -2.5159    1.1738   -1.5697 H   0  0  0  0  0  0  0  0  0  0  0  0
   -1.4050    1.6643   -0.1854 H   0  0  0  0  0  0  0  0  0  0  0  0
   -3.1131    1.5837    1.2435 H   0  0  0  0  0  0  0  0  0  0  0  0
   -2.6837   -1.5773    1.2756 H   0  0  0  0  0  0  0  0  0  0  0  0
   -3.4753   -1.8113   -0.3385 H   0  0  0  0  0  0  0  0  0  0  0  0
  1  2  1  0
  2  3  1  0
  3  4  1  0
  4  5  1  0
  5  6  1  0
  6  7  1  0
  7  8  1  0
  8  9  1  0
  9 10  1  0
 10 11  1  0
 11 12  1  0
 12 13  1  0
  7  3  1  0
 13  9  1  0
  1 14  1  0
  1 15  1  0
  1 16  1  0
  3 17  1  1
  4 18  1  0
  4 19  1  0
  6 20  1  0
  6 21  1  0
  7 22  1  6
  8 23  1  0
  9 24  1  6
 10 25  1  0
 10 26  1  0
 11 27  1  0
 13 28  1  0
 13 29  1  0
M  END
$$$$
