
     RDKit          3D

 30 30  0  0  0  0  0  0  0  0999 V2000
   -1.2295    0.8735   -1.3377 C   0  0  0  0  0  0  0  0  0  0  0  0
   -1.2379    1.0744    0.0656 N   0  0  0  0  0  0  0  0  0  0  0  0
   -2.1787    2.0206    0.5682 C   0  0  0  0  0  0  0  0  0  0  0  0
   -1.1061   -0.0862    0.8774 C   0  0  1  0  0  0  0  0  0  0  0  0
   -2.2100   -1.0808    0.7333 C   0  0  0  0  0  0  0  0  0  0  0  0
   -1.6902   -2.2653    0.1329 N   0  0  0  0  0  0  0  0  0  0  0  0
   -0.2681   -2.1986    0.0996 C   0  0  0  0  0  0  0  0  0  0  0  0
    0.1585   -0.8585    0.6421 C   0  0  1  0  0  0  0  0  0  0  0  0
    0.9950   -0.2008   -0.2624 O   0  0  0  0  0  0  0  0  0  0  0  0
    2.2242    0.0010    0.3194 C   0  0  0  0  0  0  0  0  0  0  0  0
    3.1595    0.6927   -0.5851 C   0  0  0  0  0  0  0  0  0  0  0  0
    4.4835    0.9960   -0.1822 N   0  0  0  0  0  0  0  0  0  0  0  0
    2.7603    1.0126   -1.7308 O   0  0  0  0  0  0  0  0  0  0  0  0
   -1.4875   -0.1490   -1.6687 H   0  0  0  0  0  0  0  0  0  0  0  0
   -0.2235    1.1309   -1.7361 H   0  0  0  0  0  0  0  0  0  0  0  0
   -1.9461    1.5602   -1.8513 H   0  0  0  0  0  0  0  0  0  0  0  0
   -2.4557    1.7189    1.6117 H   0  0  0  0  0  0  0  0  0  0  0  0
   -1.6909    3.0342    0.6676 H   0  0  0  0  0  0  0  0  0  0  0  0
   -3.0871    2.1392   -0.0413 H   0  0  0  0  0  0  0  0  0  0  0  0
   -1.0837    0.2743    1.9487 H   0  0  0  0  0  0  0  0  0  0  0  0
   -3.0071   -0.6615    0.0680 H   0  0  0  0  0  0  0  0  0  0  0  0
   -2.7123   -1.3296    1.6857 H   0  0  0  0  0  0  0  0  0  0  0  0
   -2.0440   -3.1450    0.5652 H   0  0  0  0  0  0  0  0  0  0  0  0
    0.1509   -3.0473    0.7107 H   0  0  0  0  0  0  0  0  0  0  0  0
    0.1794   -2.3298   -0.9076 H   0  0  0  0  0  0  0  0  0  0  0  0
    0.6985   -1.0466    1.5913 H   0  0  0  0  0  0  0  0  0  0  0  0
    2.7090   -0.9604    0.6128 H   0  0  0  0  0  0  0  0  0  0  0  0
    2.1093    0.6219    1.2463 H   0  0  0  0  0  0  0  0  0  0  0  0
    5.3025    0.4079   -0.4975 H   0  0  0  0  0  0  0  0  0  0  0  0
    4.7276    1.8009    0.4368 H   0  0  0  0  0  0  0  0  0  0  0  0
  1  2  1  0
  2  3  1  0
  2  4  1  0
  4  5  1  0
  5  6  1  0
  6  7  1  0
  7  8  1  0
  8  9  1  0
  9 10  1  0
 10 11  1  0
 11 12  1  0
 11 13  2  0
  8  4  1  0
  1 14  1  0
  1 15  1  0
  1 16  1  0
  3 17  1  0
  3 18  1  0
  3 19  1  0
  4 20  1  1
  5 21  1  0
  5 22  1  0
  6 23  1  0
  7 24  1  0
  7 25  1  0
  8 26  1  1
 10 27  1  0
 10 28  1  0
 12 29  1  0
 12 30  1  0
M  END
$$$$

     RDKit          3D

 30 30  0  0  0  0  0  0  0  0999 V2000
   -2.8553    0.9388    0.6861 C   0  0  0  0  0  0  0  0  0  0  0  0
   -1.4725    0.8261    0.1851 N   0  0  0  0  0  0  0  0  0  0  0  0
   -1.5346    1.1517   -1.2046 C   0  0  0  0  0  0  0  0  0  0  0  0
   -1.0226   -0.4710    0.5113 C   0  0  1  0  0  0  0  0  0  0  0  0
   -1.7817   -1.6051   -0.1323 C   0  0  0  0  0  0  0  0  0  0  0  0
   -0.8995   -2.7273    0.2181 N   0  0  0  0  0  0  0  0  0  0  0  0
    0.3752   -2.2342   -0.2712 C   0  0  0  0  0  0  0  0  0  0  0  0
    0.3964   -0.8071    0.2636 C   0  0  1  0  0  0  0  0  0  0  0  0
    1.0856    0.0404   -0.5736 O   0  0  0  0  0  0  0  0  0  0  0  0
    2.2505    0.5178    0.0169 C   0  0  0  0  0  0  0  0  0  0  0  0
    3.0017    1.4214   -0.8540 C   0  0  0  0  0  0  0  0  0  0  0  0
    4.2083    2.0077   -0.4251 N   0  0  0  0  0  0  0  0  0  0  0  0
    2.5707    1.6838   -2.0024 O   0  0  0  0  0  0  0  0  0  0  0  0
   -3.0018    1.9421    1.1387 H   0  0  0  0  0  0  0  0  0  0  0  0
   -3.5743    0.7497   -0.1377 H   0  0  0  0  0  0  0  0  0  0  0  0
   -3.0558    0.1838    1.4673 H   0  0  0  0  0  0  0  0  0  0  0  0
   -0.6134    1.0849   -1.7739 H   0  0  0  0  0  0  0  0  0  0  0  0
   -2.3269    0.5956   -1.7532 H   0  0  0  0  0  0  0  0  0  0  0  0
   -1.8631    2.2296   -1.2649 H   0  0  0  0  0  0  0  0  0  0  0  0
   -1.2066   -0.5995    1.6220 H   0  0  0  0  0  0  0  0  0  0  0  0
   -2.7507   -1.8178    0.3585 H   0  0  0  0  0  0  0  0  0  0  0  0
   -1.8488   -1.5290   -1.2236 H   0  0  0  0  0  0  0  0  0  0  0  0
   -0.8374   -2.7029    1.2633 H   0  0  0  0  0  0  0  0  0  0  0  0
    1.2026   -2.8411    0.1726 H   0  0  0  0  0  0  0  0  0  0  0  0
    0.3969   -2.2618   -1.3720 H   0  0  0  0  0  0  0  0  0  0  0  0
    0.9883   -0.8746    1.2241 H   0  0  0  0  0  0  0  0  0  0  0  0
    1.9350    0.9855    0.9884 H   0  0  0  0  0  0  0  0  0  0  0  0
    2.8720   -0.3834    0.2670 H   0  0  0  0  0  0  0  0  0  0  0  0
    4.4220    2.9931   -0.6706 H   0  0  0  0  0  0  0  0  0  0  0  0
    4.9399    1.5029    0.1483 H   0  0  0  0  0  0  0  0  0  0  0  0
  1  2  1  0
  2  3  1  0
  2  4  1  0
  4  5  1  0
  5  6  1  0
  6  7  1  0
  7  8  1  0
  8  9  1  0
  9 10  1  0
 10 11  1  0
 11 12  1  0
 11 13  2  0
  8  4  1  0
  1 14  1  0
  1 15  1  0
  1 16  1  0
  3 17  1  0
  3 18  1  0
  3 19  1  0
  4 20  1  1
  5 21  1  0
  5 22  1  0
  6 23  1  0
  7 24  1  0
  7 25  1  0
  8 26  1  1
 10 27  1  0
 10 28  1  0
 12 29  1  0
 12 30  1  0
M  END
$$$$

     RDKit          3D

 30 30  0  0  0  0  0  0  0  0999 V2000
   -1.4131    1.6078   -1.0102 C   0  0  0  0  0  0  0  0  0  0  0  0
   -1.2362    1.0996    0.2555 N   0  0  0  0  0  0  0  0  0  0  0  0
   -2.1596    1.6362    1.2402 C   0  0  0  0  0  0  0  0  0  0  0  0
   -0.9303   -0.2063    0.5428 C   0  0  1  0  0  0  0  0  0  0  0  0
   -2.0468   -1.1144    0.0708 C   0  0  0  0  0  0  0  0  0  0  0  0
   -1.4892   -1.9790   -0.9452 N   0  0  0  0  0  0  0  0  0  0  0  0
   -0.2277   -1.3885   -1.3516 C   0  0  0  0  0  0  0  0  0  0  0  0
    0.2663   -0.8623   -0.0037 C   0  0  1  0  0  0  0  0  0  0  0  0
    1.4103   -0.1597   -0.0811 O   0  0  0  0  0  0  0  0  0  0  0  0
    2.4400   -0.8045    0.5937 C   0  0  0  0  0  0  0  0  0  0  0  0
    3.6986    0.0111    0.4875 C   0  0  0  0  0  0  0  0  0  0  0  0
    3.6734    1.2227   -0.2271 N   0  0  0  0  0  0  0  0  0  0  0  0
    4.7667   -0.3595    1.0177 O   0  0  0  0  0  0  0  0  0  0  0  0
   -0.5509    1.7798   -1.6591 H   0  0  0  0  0  0  0  0  0  0  0  0
   -1.9343    2.6121   -0.9434 H   0  0  0  0  0  0  0  0  0  0  0  0
   -2.1521    0.9819   -1.5866 H   0  0  0  0  0  0  0  0  0  0  0  0
   -1.7181    2.6093    1.5766 H   0  0  0  0  0  0  0  0  0  0  0  0
   -2.2574    0.9645    2.1090 H   0  0  0  0  0  0  0  0  0  0  0  0
   -3.1310    1.8755    0.7665 H   0  0  0  0  0  0  0  0  0  0  0  0
   -0.9035   -0.3406    1.6650 H   0  0  0  0  0  0  0  0  0  0  0  0
   -2.5354   -1.6738    0.8827 H   0  0  0  0  0  0  0  0  0  0  0  0
   -2.8736   -0.5391   -0.4337 H   0  0  0  0  0  0  0  0  0  0  0  0
   -1.3909   -2.9652   -0.6148 H   0  0  0  0  0  0  0  0  0  0  0  0
   -0.3939   -0.5742   -2.0685 H   0  0  0  0  0  0  0  0  0  0  0  0
    0.4708   -2.1598   -1.7411 H   0  0  0  0  0  0  0  0  0  0  0  0
    0.4512   -1.7933    0.5923 H   0  0  0  0  0  0  0  0  0  0  0  0
    2.2097   -0.9719    1.6670 H   0  0  0  0  0  0  0  0  0  0  0  0
    2.6279   -1.8254    0.1640 H   0  0  0  0  0  0  0  0  0  0  0  0
    3.7780    1.1973   -1.2553 H   0  0  0  0  0  0  0  0  0  0  0  0
    3.5511    2.1194    0.2901 H   0  0  0  0  0  0  0  0  0  0  0  0
  1  2  1  0
  2  3  1  0
  2  4  1  0
  4  5  1  0
  5  6  1  0
  6  7  1  0
  7  8  1  0
  8  9  1  0
  9 10  1  0
 10 11  1  0
 11 12  1  0
 11 13  2  0
  8  4  1  0
  1 14  1  0
  1 15  1  0
  1 16  1  0
  3 17  1  0
  3 18  1  0
  3 19  1  0
  4 20  1  1
  5 21  1  0
  5 22  1  0
  6 23  1  0
  7 24  1  0
  7 25  1  0
  8 26  1  1
 10 27  1  0
 10 28  1  0
 12 29  1  0
 12 30  1  0
M  END
$$$$

     RDKit          3D

 30 30  0  0  0  0  0  0  0  0999 V2000
   -2.6330   -0.2791    1.8827 C   0  0  0  0  0  0  0  0  0  0  0  0
   -1.5539    0.1709    1.0813 N   0  0  0  0  0  0  0  0  0  0  0  0
   -1.5958    1.5041    0.7233 C   0  0  0  0  0  0  0  0  0  0  0  0
   -0.8689   -0.8187    0.4121 C   0  0  1  0  0  0  0  0  0  0  0  0
   -1.6889   -1.6165   -0.6079 C   0  0  0  0  0  0  0  0  0  0  0  0
   -1.6150   -0.7759   -1.7701 N   0  0  0  0  0  0  0  0  0  0  0  0
   -0.3529   -0.0632   -1.7350 C   0  0  0  0  0  0  0  0  0  0  0  0
    0.3012   -0.4362   -0.4269 C   0  0  1  0  0  0  0  0  0  0  0  0
    1.1230    0.5123    0.0889 O   0  0  0  0  0  0  0  0  0  0  0  0
    2.4137    0.0232    0.1990 C   0  0  0  0  0  0  0  0  0  0  0  0
    3.3447    1.0211    0.7578 C   0  0  0  0  0  0  0  0  0  0  0  0
    4.7054    0.7086    0.9451 N   0  0  0  0  0  0  0  0  0  0  0  0
    2.9210    2.1526    1.0672 O   0  0  0  0  0  0  0  0  0  0  0  0
   -2.6682    0.3328    2.8118 H   0  0  0  0  0  0  0  0  0  0  0  0
   -3.6302   -0.1579    1.3814 H   0  0  0  0  0  0  0  0  0  0  0  0
   -2.5411   -1.3360    2.1986 H   0  0  0  0  0  0  0  0  0  0  0  0
   -2.1117    2.0787    1.5505 H   0  0  0  0  0  0  0  0  0  0  0  0
   -2.2237    1.7153   -0.1746 H   0  0  0  0  0  0  0  0  0  0  0  0
   -0.6466    2.0394    0.5687 H   0  0  0  0  0  0  0  0  0  0  0  0
   -0.5177   -1.5926    1.1513 H   0  0  0  0  0  0  0  0  0  0  0  0
   -1.1597   -2.5837   -0.7661 H   0  0  0  0  0  0  0  0  0  0  0  0
   -2.7338   -1.7470   -0.2824 H   0  0  0  0  0  0  0  0  0  0  0  0
   -2.4056   -0.0975   -1.7276 H   0  0  0  0  0  0  0  0  0  0  0  0
    0.2287   -0.4027   -2.6171 H   0  0  0  0  0  0  0  0  0  0  0  0
   -0.4862    1.0292   -1.8462 H   0  0  0  0  0  0  0  0  0  0  0  0
    0.8867   -1.3578   -0.6245 H   0  0  0  0  0  0  0  0  0  0  0  0
    2.7135   -0.3087   -0.8258 H   0  0  0  0  0  0  0  0  0  0  0  0
    2.3580   -0.8854    0.8571 H   0  0  0  0  0  0  0  0  0  0  0  0
    5.0159   -0.2779    0.8830 H   0  0  0  0  0  0  0  0  0  0  0  0
    5.4211    1.4482    1.1467 H   0  0  0  0  0  0  0  0  0  0  0  0
  1  2  1  0
  2  3  1  0
  2  4  1  0
  4  5  1  0
  5  6  1  0
  6  7  1  0
  7  8  1  0
  8  9  1  0
  9 10  1  0
 10 11  1  0
 11 12  1  0
 11 13  2  0
  8  4  1  0
  1 14  1  0
  1 15  1  0
  1 16  1  0
  3 17  1  0
  3 18  1  0
  3 19  1  0
  4 20  1  1
  5 21  1  0
  5 22  1  0
  6 23  1  0
  7 24  1  0
  7 25  1  0
  8 26  1  6
 10 27  1  0
 10 28  1  0
 12 29  1  0
 12 30  1  0
M  END
$$$$

     RDKit          3D

 30 30  0  0  0  0  0  0  0  0999 V2000
   -2.0005    0.8864    1.5454 C   0  0  0  0  0  0  0  0  0  0  0  0
   -0.9492    0.7863    0.5777 N   0  0  0  0  0  0  0  0  0  0  0  0
   -1.2038    1.4655   -0.6434 C   0  0  0  0  0  0  0  0  0  0  0  0
   -0.5012   -0.5633    0.4680 C   0  0  1  0  0  0  0  0  0  0  0  0
   -1.5689   -1.5183   -0.0244 C   0  0  0  0  0  0  0  0  0  0  0  0
   -0.7385   -2.6286   -0.4611 N   0  0  0  0  0  0  0  0  0  0  0  0
    0.1628   -1.9256   -1.3719 C   0  0  0  0  0  0  0  0  0  0  0  0
    0.6197   -0.7897   -0.5121 C   0  0  1  0  0  0  0  0  0  0  0  0
    0.9842    0.3394   -1.0987 O   0  0  0  0  0  0  0  0  0  0  0  0
    2.2122    0.8625   -1.0229 C   0  0  0  0  0  0  0  0  0  0  0  0
    2.7343    1.1945    0.3221 C   0  0  0  0  0  0  0  0  0  0  0  0
    2.0711    1.0073    1.5383 N   0  0  0  0  0  0  0  0  0  0  0  0
    3.9045    1.6985    0.3473 O   0  0  0  0  0  0  0  0  0  0  0  0
   -3.0041    1.0246    1.1363 H   0  0  0  0  0  0  0  0  0  0  0  0
   -2.0204   -0.0137    2.2210 H   0  0  0  0  0  0  0  0  0  0  0  0
   -1.7358    1.7355    2.2398 H   0  0  0  0  0  0  0  0  0  0  0  0
   -2.1234    2.1055   -0.4836 H   0  0  0  0  0  0  0  0  0  0  0  0
   -0.3999    2.2039   -0.8674 H   0  0  0  0  0  0  0  0  0  0  0  0
   -1.4543    0.8183   -1.5057 H   0  0  0  0  0  0  0  0  0  0  0  0
   -0.2356   -0.9081    1.5032 H   0  0  0  0  0  0  0  0  0  0  0  0
   -2.2486   -1.8366    0.7798 H   0  0  0  0  0  0  0  0  0  0  0  0
   -2.1215   -1.0798   -0.8993 H   0  0  0  0  0  0  0  0  0  0  0  0
   -1.2809   -3.3630   -0.9410 H   0  0  0  0  0  0  0  0  0  0  0  0
   -0.4418   -1.6680   -2.2377 H   0  0  0  0  0  0  0  0  0  0  0  0
    0.9946   -2.6466   -1.5883 H   0  0  0  0  0  0  0  0  0  0  0  0
    1.4992   -1.1999    0.0700 H   0  0  0  0  0  0  0  0  0  0  0  0
    3.0248    0.3192   -1.5386 H   0  0  0  0  0  0  0  0  0  0  0  0
    2.1762    1.8591   -1.5664 H   0  0  0  0  0  0  0  0  0  0  0  0
    1.5227    1.7533    2.0030 H   0  0  0  0  0  0  0  0  0  0  0  0
    2.1218    0.0816    2.0107 H   0  0  0  0  0  0  0  0  0  0  0  0
  1  2  1  0
  2  3  1  0
  2  4  1  0
  4  5  1  0
  5  6  1  0
  6  7  1  0
  7  8  1  0
  8  9  1  0
  9 10  1  0
 10 11  1  0
 11 12  1  0
 11 13  2  0
  8  4  1  0
  1 14  1  0
  1 15  1  0
  1 16  1  0
  3 17  1  0
  3 18  1  0
  3 19  1  0
  4 20  1  1
  5 21  1  0
  5 22  1  0
  6 23  1  0
  7 24  1  0
  7 25  1  0
  8 26  1  1
 10 27  1  0
 10 28  1  0
 12 29  1  0
 12 30  1  0
M  END
$$$$

     RDKit          3D

 30 30  0  0  0  0  0  0  0  0999 V2000
   -2.2166    1.7827    0.5610 C   0  0  0  0  0  0  0  0  0  0  0  0
   -1.1216    0.9758    0.0703 N   0  0  0  0  0  0  0  0  0  0  0  0
   -1.3096    0.6738   -1.3097 C   0  0  0  0  0  0  0  0  0  0  0  0
   -0.7862   -0.1285    0.9164 C   0  0  1  0  0  0  0  0  0  0  0  0
   -1.9189   -1.1240    1.0516 C   0  0  0  0  0  0  0  0  0  0  0  0
   -1.5428   -2.2704    0.2708 N   0  0  0  0  0  0  0  0  0  0  0  0
   -0.1243   -2.2820    0.1502 C   0  0  0  0  0  0  0  0  0  0  0  0
    0.4040   -0.8908    0.4711 C   0  0  1  0  0  0  0  0  0  0  0  0
    0.9688   -0.3220   -0.6329 O   0  0  0  0  0  0  0  0  0  0  0  0
    2.2915   -0.0156   -0.5902 C   0  0  0  0  0  0  0  0  0  0  0  0
    2.6328    0.9435    0.4768 C   0  0  0  0  0  0  0  0  0  0  0  0
    3.9686    1.3734    0.6420 N   0  0  0  0  0  0  0  0  0  0  0  0
    1.7351    1.3713    1.2298 O   0  0  0  0  0  0  0  0  0  0  0  0
   -1.9247    2.2284    1.5552 H   0  0  0  0  0  0  0  0  0  0  0  0
   -2.2880    2.6547   -0.1375 H   0  0  0  0  0  0  0  0  0  0  0  0
   -3.1781    1.2649    0.6047 H   0  0  0  0  0  0  0  0  0  0  0  0
   -0.6148    1.3205   -1.9227 H   0  0  0  0  0  0  0  0  0  0  0  0
   -1.1523   -0.3598   -1.6104 H   0  0  0  0  0  0  0  0  0  0  0  0
   -2.3305    0.9755   -1.6769 H   0  0  0  0  0  0  0  0  0  0  0  0
   -0.6554    0.2941    1.9547 H   0  0  0  0  0  0  0  0  0  0  0  0
   -2.8691   -0.7444    0.6382 H   0  0  0  0  0  0  0  0  0  0  0  0
   -2.0675   -1.4625    2.1015 H   0  0  0  0  0  0  0  0  0  0  0  0
   -2.0648   -2.3465   -0.6276 H   0  0  0  0  0  0  0  0  0  0  0  0
    0.3788   -2.9861    0.8404 H   0  0  0  0  0  0  0  0  0  0  0  0
    0.1297   -2.5606   -0.9005 H   0  0  0  0  0  0  0  0  0  0  0  0
    1.1837   -0.9541    1.2791 H   0  0  0  0  0  0  0  0  0  0  0  0
    2.9594   -0.8937   -0.4340 H   0  0  0  0  0  0  0  0  0  0  0  0
    2.6036    0.3956   -1.5980 H   0  0  0  0  0  0  0  0  0  0  0  0
    4.7635    0.7740    0.3790 H   0  0  0  0  0  0  0  0  0  0  0  0
    4.1460    2.3128    1.0372 H   0  0  0  0  0  0  0  0  0  0  0  0
  1  2  1  0
  2  3  1  0
  2  4  1  0
  4  5  1  0
  5  6  1  0
  6  7  1  0
  7  8  1  0
  8  9  1  0
  9 10  1  0
 10 11  1  0
 11 12  1  0
 11 13  2  0
  8  4  1  0
  1 14  1  0
  1 15  1  0
  1 16  1  0
  3 17  1  0
  3 18  1  0
  3 19  1  0
  4 20  1  1
  5 21  1  0
  5 22  1  0
  6 23  1  0
  7 24  1  0
  7 25  1  0
  8 26  1  1
 10 27  1  0
 10 28  1  0
 12 29  1  0
 12 30  1  0
M  END
$$$$

     RDKit          3D

 30 30  0  0  0  0  0  0  0  0999 V2000
   -2.5512    0.4117    1.4802 C   0  0  0  0  0  0  0  0  0  0  0  0
   -1.3536    0.4812    0.7156 N   0  0  0  0  0  0  0  0  0  0  0  0
   -1.2307    1.6178   -0.0872 C   0  0  0  0  0  0  0  0  0  0  0  0
   -0.8895   -0.7687    0.3134 C   0  0  1  0  0  0  0  0  0  0  0  0
   -1.8108   -1.5582   -0.6022 C   0  0  0  0  0  0  0  0  0  0  0  0
   -1.4349   -1.1072   -1.9065 N   0  0  0  0  0  0  0  0  0  0  0  0
   -0.0389   -0.7411   -1.8853 C   0  0  0  0  0  0  0  0  0  0  0  0
    0.3968   -0.8177   -0.4452 C   0  0  1  0  0  0  0  0  0  0  0  0
    1.3261    0.1075   -0.0842 O   0  0  0  0  0  0  0  0  0  0  0  0
    2.4837   -0.5188    0.3451 C   0  0  0  0  0  0  0  0  0  0  0  0
    3.5385    0.4284    0.7508 C   0  0  0  0  0  0  0  0  0  0  0  0
    3.3260    1.8219    0.6841 N   0  0  0  0  0  0  0  0  0  0  0  0
    4.6330   -0.0145    1.1582 O   0  0  0  0  0  0  0  0  0  0  0  0
   -2.5182    1.2235    2.2551 H   0  0  0  0  0  0  0  0  0  0  0  0
   -3.4745    0.5662    0.8983 H   0  0  0  0  0  0  0  0  0  0  0  0
   -2.5536   -0.5410    2.0467 H   0  0  0  0  0  0  0  0  0  0  0  0
   -1.3786    2.5256    0.5731 H   0  0  0  0  0  0  0  0  0  0  0  0
   -2.0955    1.6954   -0.8111 H   0  0  0  0  0  0  0  0  0  0  0  0
   -0.2854    1.7823   -0.5983 H   0  0  0  0  0  0  0  0  0  0  0  0
   -0.7775   -1.4134    1.2362 H   0  0  0  0  0  0  0  0  0  0  0  0
   -1.5211   -2.6430   -0.5272 H   0  0  0  0  0  0  0  0  0  0  0  0
   -2.8684   -1.4369   -0.3759 H   0  0  0  0  0  0  0  0  0  0  0  0
   -2.0076   -0.2899   -2.1520 H   0  0  0  0  0  0  0  0  0  0  0  0
    0.4912   -1.5118   -2.5184 H   0  0  0  0  0  0  0  0  0  0  0  0
    0.1709    0.2197   -2.3602 H   0  0  0  0  0  0  0  0  0  0  0  0
    0.8222   -1.8311   -0.2964 H   0  0  0  0  0  0  0  0  0  0  0  0
    2.2175   -1.1217    1.2603 H   0  0  0  0  0  0  0  0  0  0  0  0
    2.8796   -1.2344   -0.4173 H   0  0  0  0  0  0  0  0  0  0  0  0
    3.0169    2.2788   -0.1911 H   0  0  0  0  0  0  0  0  0  0  0  0
    3.4873    2.3895    1.5416 H   0  0  0  0  0  0  0  0  0  0  0  0
  1  2  1  0
  2  3  1  0
  2  4  1  0
  4  5  1  0
  5  6  1  0
  6  7  1  0
  7  8  1  0
  8  9  1  0
  9 10  1  0
 10 11  1  0
 11 12  1  0
 11 13  2  0
  8  4  1  0
  1 14  1  0
  1 15  1  0
  1 16  1  0
  3 17  1  0
  3 18  1  0
  3 19  1  0
  4 20  1  1
  5 21  1  0
  5 22  1  0
  6 23  1  0
  7 24  1  0
  7 25  1  0
  8 26  1  6
 10 27  1  0
 10 28  1  0
 12 29  1  0
 12 30  1  0
M  END
$$$$

     RDKit          3D

 30 30  0  0  0  0  0  0  0  0999 V2000
   -1.7488    1.4950   -0.6671 C   0  0  0  0  0  0  0  0  0  0  0  0
   -1.7984    0.0812   -0.4188 N   0  0  0  0  0  0  0  0  0  0  0  0
   -3.0987   -0.2302    0.0459 C   0  0  0  0  0  0  0  0  0  0  0  0
   -0.6952   -0.3393    0.4206 C   0  0  1  0  0  0  0  0  0  0  0  0
   -0.8450   -1.8333    0.7560 C   0  0  0  0  0  0  0  0  0  0  0  0
   -0.9410   -2.3545   -0.5647 N   0  0  0  0  0  0  0  0  0  0  0  0
    0.1718   -1.7229   -1.2443 C   0  0  0  0  0  0  0  0  0  0  0  0
    0.5600   -0.4900   -0.4005 C   0  0  1  0  0  0  0  0  0  0  0  0
    0.9096    0.5531   -1.1893 O   0  0  0  0  0  0  0  0  0  0  0  0
    2.2100    0.9046   -1.0451 C   0  0  0  0  0  0  0  0  0  0  0  0
    2.6389    1.3445    0.2915 C   0  0  0  0  0  0  0  0  0  0  0  0
    3.9788    1.7210    0.5828 N   0  0  0  0  0  0  0  0  0  0  0  0
    1.8186    1.4000    1.2265 O   0  0  0  0  0  0  0  0  0  0  0  0
   -2.7658    1.7730   -1.0782 H   0  0  0  0  0  0  0  0  0  0  0  0
   -1.0285    1.8258   -1.4112 H   0  0  0  0  0  0  0  0  0  0  0  0
   -1.6928    2.0822    0.2913 H   0  0  0  0  0  0  0  0  0  0  0  0
   -3.7023   -0.5637   -0.8505 H   0  0  0  0  0  0  0  0  0  0  0  0
   -3.6669    0.6728    0.4168 H   0  0  0  0  0  0  0  0  0  0  0  0
   -3.2135   -0.9953    0.7940 H   0  0  0  0  0  0  0  0  0  0  0  0
   -0.5869    0.2495    1.3247 H   0  0  0  0  0  0  0  0  0  0  0  0
    0.1665   -2.1386    1.1558 H   0  0  0  0  0  0  0  0  0  0  0  0
   -1.6162   -2.0576    1.4569 H   0  0  0  0  0  0  0  0  0  0  0  0
   -1.8033   -2.0387   -1.0689 H   0  0  0  0  0  0  0  0  0  0  0  0
   -0.0572   -1.4430   -2.2769 H   0  0  0  0  0  0  0  0  0  0  0  0
    1.0102   -2.4549   -1.2282 H   0  0  0  0  0  0  0  0  0  0  0  0
    1.3893   -0.8101    0.2630 H   0  0  0  0  0  0  0  0  0  0  0  0
    2.8718    0.0349   -1.3466 H   0  0  0  0  0  0  0  0  0  0  0  0
    2.5034    1.6970   -1.8067 H   0  0  0  0  0  0  0  0  0  0  0  0
    4.7506    1.0784    0.2485 H   0  0  0  0  0  0  0  0  0  0  0  0
    4.2809    2.5591    1.0887 H   0  0  0  0  0  0  0  0  0  0  0  0
  1  2  1  0
  2  3  1  0
  2  4  1  0
  4  5  1  0
  5  6  1  0
  6  7  1  0
  7  8  1  0
  8  9  1  0
  9 10  1  0
 10 11  1  0
 11 12  1  0
 11 13  2  0
  8  4  1  0
  1 14  1  0
  1 15  1  0
  1 16  1  0
  3 17  1  0
  3 18  1  0
  3 19  1  0
  4 20  1  1
  5 21  1  0
  5 22  1  0
  6 23  1  0
  7 24  1  0
  7 25  1  0
  8 26  1  1
 10 27  1  0
 10 28  1  0
 12 29  1  0
 12 30  1  0
M  END
$$$$
