
     RDKit          3D

 29 29  0  0  0  0  0  0  0  0999 V2000
    4.7364    0.4337   -0.6549 N   0  0  0  0  0  0  0  0  0  0  0  0
    3.3529    0.2141   -0.9500 C   0  0  0  0  0  0  0  0  0  0  0  0
    2.4856    0.3680    0.2906 C   0  0  2  0  0  0  0  0  0  0  0  0
    2.8365   -0.5244    1.2739 O   0  0  0  0  0  0  0  0  0  0  0  0
    1.0656    0.0936   -0.1119 C   0  0  0  0  0  0  0  0  0  0  0  0
    0.5758    0.8033   -0.9913 O   0  0  0  0  0  0  0  0  0  0  0  0
    0.3631   -0.9396    0.5149 N   0  0  0  0  0  0  0  0  0  0  0  0
   -0.9726   -1.3230    0.2790 C   0  0  0  0  0  0  0  0  0  0  0  0
   -2.0083   -0.3593    0.6475 C   0  0  1  0  0  0  0  0  0  0  0  0
   -2.0587    0.9604   -0.0018 C   0  0  0  0  0  0  0  0  0  0  0  0
   -3.5479    1.3590    0.2158 C   0  0  0  0  0  0  0  0  0  0  0  0
   -4.2515    0.1878    0.2888 O   0  0  0  0  0  0  0  0  0  0  0  0
   -3.4085   -0.8929    0.3068 C   0  0  0  0  0  0  0  0  0  0  0  0
    5.0268    0.0218    0.2433 H   0  0  0  0  0  0  0  0  0  0  0  0
    4.9747    1.4551   -0.7508 H   0  0  0  0  0  0  0  0  0  0  0  0
    3.0390    0.9598   -1.7000 H   0  0  0  0  0  0  0  0  0  0  0  0
    3.1925   -0.7838   -1.3733 H   0  0  0  0  0  0  0  0  0  0  0  0
    2.5174    1.4167    0.6343 H   0  0  0  0  0  0  0  0  0  0  0  0
    3.4719   -1.1856    0.9129 H   0  0  0  0  0  0  0  0  0  0  0  0
    0.8865   -1.5281    1.2759 H   0  0  0  0  0  0  0  0  0  0  0  0
   -1.1148   -1.6600   -0.8013 H   0  0  0  0  0  0  0  0  0  0  0  0
   -1.2120   -2.2865    0.8337 H   0  0  0  0  0  0  0  0  0  0  0  0
   -1.9791   -0.2175    1.7752 H   0  0  0  0  0  0  0  0  0  0  0  0
   -1.4252    1.7285    0.4300 H   0  0  0  0  0  0  0  0  0  0  0  0
   -1.9922    0.8756   -1.0941 H   0  0  0  0  0  0  0  0  0  0  0  0
   -3.5614    1.8481    1.2113 H   0  0  0  0  0  0  0  0  0  0  0  0
   -3.8871    2.0050   -0.6056 H   0  0  0  0  0  0  0  0  0  0  0  0
   -3.3862   -1.4875   -0.6150 H   0  0  0  0  0  0  0  0  0  0  0  0
   -3.7193   -1.5424    1.1640 H   0  0  0  0  0  0  0  0  0  0  0  0
  1  2  1  0
  2  3  1  0
  3  4  1  0
  3  5  1  0
  5  6  2  0
  5  7  1  0
  7  8  1  0
  8  9  1  0
  9 10  1  0
 10 11  1  0
 11 12  1  0
 12 13  1  0
 13  9  1  0
  1 14  1  0
  1 15  1  0
  2 16  1  0
  2 17  1  0
  3 18  1  1
  4 19  1  0
  7 20  1  0
  8 21  1  0
  8 22  1  0
  9 23  1  1
 10 24  1  0
 10 25  1  0
 11 26  1  0
 11 27  1  0
 13 28  1  0
 13 29  1  0
M  END
$$$$

     RDKit          3D

 29 29  0  0  0  0  0  0  0  0999 V2000
    4.5437    0.0511    1.2619 N   0  0  0  0  0  0  0  0  0  0  0  0
    3.2828    0.6016    0.8549 C   0  0  0  0  0  0  0  0  0  0  0  0
    2.2102   -0.4350    0.7122 C   0  0  2  0  0  0  0  0  0  0  0  0
    2.5867   -1.3633   -0.2379 O   0  0  0  0  0  0  0  0  0  0  0  0
    0.9527    0.2930    0.2955 C   0  0  0  0  0  0  0  0  0  0  0  0
    0.5324    1.1440    1.0758 O   0  0  0  0  0  0  0  0  0  0  0  0
    0.3052    0.0094   -0.9157 N   0  0  0  0  0  0  0  0  0  0  0  0
   -0.8710    0.5918   -1.4376 C   0  0  0  0  0  0  0  0  0  0  0  0
   -2.1530    0.4623   -0.7361 C   0  0  1  0  0  0  0  0  0  0  0  0
   -2.5617   -0.9911   -0.5061 C   0  0  0  0  0  0  0  0  0  0  0  0
   -3.1552   -0.9135    0.8650 C   0  0  0  0  0  0  0  0  0  0  0  0
   -2.3092    0.0301    1.5032 O   0  0  0  0  0  0  0  0  0  0  0  0
   -2.3934    1.0881    0.5686 C   0  0  0  0  0  0  0  0  0  0  0  0
    4.3871   -0.5613    2.0895 H   0  0  0  0  0  0  0  0  0  0  0  0
    4.9571   -0.5207    0.4910 H   0  0  0  0  0  0  0  0  0  0  0  0
    3.4095    1.0772   -0.1565 H   0  0  0  0  0  0  0  0  0  0  0  0
    2.9666    1.3721    1.6106 H   0  0  0  0  0  0  0  0  0  0  0  0
    2.0535   -0.9599    1.6775 H   0  0  0  0  0  0  0  0  0  0  0  0
    2.8056   -0.9410   -1.0956 H   0  0  0  0  0  0  0  0  0  0  0  0
    0.7830   -0.7550   -1.5091 H   0  0  0  0  0  0  0  0  0  0  0  0
   -1.0349    0.1740   -2.4838 H   0  0  0  0  0  0  0  0  0  0  0  0
   -0.7053    1.7148   -1.6259 H   0  0  0  0  0  0  0  0  0  0  0  0
   -2.9550    0.8174   -1.4886 H   0  0  0  0  0  0  0  0  0  0  0  0
   -1.6477   -1.6371   -0.4465 H   0  0  0  0  0  0  0  0  0  0  0  0
   -3.2734   -1.3670   -1.2654 H   0  0  0  0  0  0  0  0  0  0  0  0
   -4.1421   -0.4158    0.7800 H   0  0  0  0  0  0  0  0  0  0  0  0
   -3.1901   -1.8639    1.4078 H   0  0  0  0  0  0  0  0  0  0  0  0
   -3.5279    1.3170    0.6024 H   0  0  0  0  0  0  0  0  0  0  0  0
   -1.8564    1.9806    0.8379 H   0  0  0  0  0  0  0  0  0  0  0  0
  1  2  1  0
  2  3  1  0
  3  4  1  0
  3  5  1  0
  5  6  2  0
  5  7  1  0
  7  8  1  0
  8  9  1  0
  9 10  1  0
 10 11  1  0
 11 12  1  0
 12 13  1  0
 13  9  1  0
  1 14  1  0
  1 15  1  0
  2 16  1  0
  2 17  1  0
  3 18  1  1
  4 19  1  0
  7 20  1  0
  8 21  1  0
  8 22  1  0
  9 23  1  6
 10 24  1  0
 10 25  1  0
 11 26  1  0
 11 27  1  0
 13 28  1  0
 13 29  1  0
M  END
$$$$

     RDKit          3D

 29 29  0  0  0  0  0  0  0  0999 V2000
    3.8750    1.5128    0.2351 N   0  0  0  0  0  0  0  0  0  0  0  0
    3.7543    0.2925   -0.5121 C   0  0  0  0  0  0  0  0  0  0  0  0
    2.6566   -0.5895    0.0796 C   0  0  2  0  0  0  0  0  0  0  0  0
    2.6333   -1.7486   -0.7319 O   0  0  0  0  0  0  0  0  0  0  0  0
    1.3390    0.0879   -0.0406 C   0  0  0  0  0  0  0  0  0  0  0  0
    1.1397    1.1480    0.6030 O   0  0  0  0  0  0  0  0  0  0  0  0
    0.2800   -0.3951   -0.8472 N   0  0  0  0  0  0  0  0  0  0  0  0
   -0.9722    0.2667   -0.9490 C   0  0  0  0  0  0  0  0  0  0  0  0
   -1.7098    0.4065    0.3571 C   0  0  1  0  0  0  0  0  0  0  0  0
   -3.0074    1.1229    0.0836 C   0  0  0  0  0  0  0  0  0  0  0  0
   -4.0410    0.2276    0.6953 C   0  0  0  0  0  0  0  0  0  0  0  0
   -3.4785   -0.9771    0.9799 O   0  0  0  0  0  0  0  0  0  0  0  0
   -2.1179   -0.8794    0.9718 C   0  0  0  0  0  0  0  0  0  0  0  0
    3.4318    1.3876    1.1934 H   0  0  0  0  0  0  0  0  0  0  0  0
    4.8901    1.7403    0.3699 H   0  0  0  0  0  0  0  0  0  0  0  0
    4.7096   -0.2322   -0.5801 H   0  0  0  0  0  0  0  0  0  0  0  0
    3.4468    0.5344   -1.5613 H   0  0  0  0  0  0  0  0  0  0  0  0
    2.8979   -0.8792    1.1137 H   0  0  0  0  0  0  0  0  0  0  0  0
    2.5710   -1.3788   -1.6694 H   0  0  0  0  0  0  0  0  0  0  0  0
    0.4514   -1.2710   -1.3760 H   0  0  0  0  0  0  0  0  0  0  0  0
   -1.6480   -0.2648   -1.6473 H   0  0  0  0  0  0  0  0  0  0  0  0
   -0.8817    1.3078   -1.3674 H   0  0  0  0  0  0  0  0  0  0  0  0
   -1.1462    1.0269    1.0850 H   0  0  0  0  0  0  0  0  0  0  0  0
   -3.1981    1.2384   -1.0157 H   0  0  0  0  0  0  0  0  0  0  0  0
   -3.0355    2.1372    0.5095 H   0  0  0  0  0  0  0  0  0  0  0  0
   -4.8678    0.0623   -0.0444 H   0  0  0  0  0  0  0  0  0  0  0  0
   -4.5169    0.7393    1.5636 H   0  0  0  0  0  0  0  0  0  0  0  0
   -1.6936   -1.7753    0.4628 H   0  0  0  0  0  0  0  0  0  0  0  0
   -1.7619   -0.9607    2.0391 H   0  0  0  0  0  0  0  0  0  0  0  0
  1  2  1  0
  2  3  1  0
  3  4  1  0
  3  5  1  0
  5  6  2  0
  5  7  1  0
  7  8  1  0
  8  9  1  0
  9 10  1  0
 10 11  1  0
 11 12  1  0
 12 13  1  0
 13  9  1  0
  1 14  1  0
  1 15  1  0
  2 16  1  0
  2 17  1  0
  3 18  1  1
  4 19  1  0
  7 20  1  0
  8 21  1  0
  8 22  1  0
  9 23  1  1
 10 24  1  0
 10 25  1  0
 11 26  1  0
 11 27  1  0
 13 28  1  0
 13 29  1  0
M  END
$$$$

     RDKit          3D

 29 29  0  0  0  0  0  0  0  0999 V2000
    4.8298   -0.4569    0.7220 N   0  0  0  0  0  0  0  0  0  0  0  0
    3.4906   -0.1144    1.1970 C   0  0  0  0  0  0  0  0  0  0  0  0
    2.5303   -0.4200    0.0654 C   0  0  2  0  0  0  0  0  0  0  0  0
    2.9048    0.3583   -1.0141 O   0  0  0  0  0  0  0  0  0  0  0  0
    1.1541   -0.1024    0.5222 C   0  0  0  0  0  0  0  0  0  0  0  0
    0.6746   -0.7238    1.4895 O   0  0  0  0  0  0  0  0  0  0  0  0
    0.3800    0.8970   -0.1271 N   0  0  0  0  0  0  0  0  0  0  0  0
   -0.9633    1.2470    0.2734 C   0  0  0  0  0  0  0  0  0  0  0  0
   -1.8987    0.0549    0.1719 C   0  0  1  0  0  0  0  0  0  0  0  0
   -3.2977    0.4211    0.5889 C   0  0  0  0  0  0  0  0  0  0  0  0
   -3.9711    0.6145   -0.7732 C   0  0  0  0  0  0  0  0  0  0  0  0
   -3.4032   -0.4068   -1.5030 O   0  0  0  0  0  0  0  0  0  0  0  0
   -2.0478   -0.2941   -1.2947 C   0  0  0  0  0  0  0  0  0  0  0  0
    4.7979   -1.4380    0.3747 H   0  0  0  0  0  0  0  0  0  0  0  0
    5.0394    0.1561   -0.0937 H   0  0  0  0  0  0  0  0  0  0  0  0
    3.4591    0.9726    1.3712 H   0  0  0  0  0  0  0  0  0  0  0  0
    3.2524   -0.6725    2.1198 H   0  0  0  0  0  0  0  0  0  0  0  0
    2.6196   -1.5012   -0.1792 H   0  0  0  0  0  0  0  0  0  0  0  0
    2.3479    0.2626   -1.8044 H   0  0  0  0  0  0  0  0  0  0  0  0
    0.8209    1.4024   -0.9427 H   0  0  0  0  0  0  0  0  0  0  0  0
   -1.3337    2.0790   -0.3398 H   0  0  0  0  0  0  0  0  0  0  0  0
   -0.9688    1.6052    1.3252 H   0  0  0  0  0  0  0  0  0  0  0  0
   -1.5278   -0.7939    0.7410 H   0  0  0  0  0  0  0  0  0  0  0  0
   -3.7927   -0.3988    1.1646 H   0  0  0  0  0  0  0  0  0  0  0  0
   -3.2517    1.3597    1.1620 H   0  0  0  0  0  0  0  0  0  0  0  0
   -3.6243    1.5972   -1.1424 H   0  0  0  0  0  0  0  0  0  0  0  0
   -5.0563    0.5407   -0.6493 H   0  0  0  0  0  0  0  0  0  0  0  0
   -1.6229    0.4771   -1.9633 H   0  0  0  0  0  0  0  0  0  0  0  0
   -1.5416   -1.2772   -1.4620 H   0  0  0  0  0  0  0  0  0  0  0  0
  1  2  1  0
  2  3  1  0
  3  4  1  0
  3  5  1  0
  5  6  2  0
  5  7  1  0
  7  8  1  0
  8  9  1  0
  9 10  1  0
 10 11  1  0
 11 12  1  0
 12 13  1  0
 13  9  1  0
  1 14  1  0
  1 15  1  0
  2 16  1  0
  2 17  1  0
  3 18  1  6
  4 19  1  0
  7 20  1  0
  8 21  1  0
  8 22  1  0
  9 23  1  1
 10 24  1  0
 10 25  1  0
 11 26  1  0
 11 27  1  0
 13 28  1  0
 13 29  1  0
M  END
$$$$

     RDKit          3D

 29 29  0  0  0  0  0  0  0  0999 V2000
    4.5100    0.5015   -1.0439 N   0  0  0  0  0  0  0  0  0  0  0  0
    3.2235   -0.1377   -0.8618 C   0  0  0  0  0  0  0  0  0  0  0  0
    2.8808   -0.0412    0.6060 C   0  0  2  0  0  0  0  0  0  0  0  0
    3.8579   -0.6855    1.3281 O   0  0  0  0  0  0  0  0  0  0  0  0
    1.5351   -0.6360    0.8916 C   0  0  0  0  0  0  0  0  0  0  0  0
    1.4624   -1.5920    1.7050 O   0  0  0  0  0  0  0  0  0  0  0  0
    0.3565   -0.1513    0.2731 N   0  0  0  0  0  0  0  0  0  0  0  0
   -0.9268   -0.7213    0.5479 C   0  0  0  0  0  0  0  0  0  0  0  0
   -2.0424   -0.0588   -0.2135 C   0  0  1  0  0  0  0  0  0  0  0  0
   -3.3867   -0.6802    0.0954 C   0  0  0  0  0  0  0  0  0  0  0  0
   -4.2655    0.5724   -0.0089 C   0  0  0  0  0  0  0  0  0  0  0  0
   -3.5159    1.4465    0.7833 O   0  0  0  0  0  0  0  0  0  0  0  0
   -2.2545    1.3749    0.1714 C   0  0  0  0  0  0  0  0  0  0  0  0
    4.4598    1.4653   -0.6496 H   0  0  0  0  0  0  0  0  0  0  0  0
    5.2585   -0.0210   -0.5142 H   0  0  0  0  0  0  0  0  0  0  0  0
    2.4754    0.4188   -1.4565 H   0  0  0  0  0  0  0  0  0  0  0  0
    3.2385   -1.1796   -1.2221 H   0  0  0  0  0  0  0  0  0  0  0  0
    2.9087    1.0366    0.8782 H   0  0  0  0  0  0  0  0  0  0  0  0
    4.0651   -1.5532    0.9091 H   0  0  0  0  0  0  0  0  0  0  0  0
    0.4514    0.6393   -0.3938 H   0  0  0  0  0  0  0  0  0  0  0  0
   -0.9465   -1.8055    0.2543 H   0  0  0  0  0  0  0  0  0  0  0  0
   -1.1464   -0.7120    1.6341 H   0  0  0  0  0  0  0  0  0  0  0  0
   -1.8738   -0.1578   -1.3040 H   0  0  0  0  0  0  0  0  0  0  0  0
   -3.3797   -1.0120    1.1680 H   0  0  0  0  0  0  0  0  0  0  0  0
   -3.6867   -1.4610   -0.5996 H   0  0  0  0  0  0  0  0  0  0  0  0
   -4.1870    0.9424   -1.0438 H   0  0  0  0  0  0  0  0  0  0  0  0
   -5.2734    0.4005    0.3531 H   0  0  0  0  0  0  0  0  0  0  0  0
   -1.4625    1.8008    0.7850 H   0  0  0  0  0  0  0  0  0  0  0  0
   -2.3357    2.0070   -0.7537 H   0  0  0  0  0  0  0  0  0  0  0  0
  1  2  1  0
  2  3  1  0
  3  4  1  0
  3  5  1  0
  5  6  2  0
  5  7  1  0
  7  8  1  0
  8  9  1  0
  9 10  1  0
 10 11  1  0
 11 12  1  0
 12 13  1  0
 13  9  1  0
  1 14  1  0
  1 15  1  0
  2 16  1  0
  2 17  1  0
  3 18  1  1
  4 19  1  0
  7 20  1  0
  8 21  1  0
  8 22  1  0
  9 23  1  6
 10 24  1  0
 10 25  1  0
 11 26  1  0
 11 27  1  0
 13 28  1  0
 13 29  1  0
M  END
$$$$

     RDKit          3D

 29 29  0  0  0  0  0  0  0  0999 V2000
    4.7784    0.1765   -0.0621 N   0  0  0  0  0  0  0  0  0  0  0  0
    3.3920    0.4837   -0.4134 C   0  0  0  0  0  0  0  0  0  0  0  0
    2.5486   -0.7803   -0.3285 C   0  0  2  0  0  0  0  0  0  0  0  0
    3.0118   -1.7548   -1.1920 O   0  0  0  0  0  0  0  0  0  0  0  0
    1.1388   -0.3824   -0.6743 C   0  0  0  0  0  0  0  0  0  0  0  0
    0.5423   -0.9030   -1.6360 O   0  0  0  0  0  0  0  0  0  0  0  0
    0.5050    0.5853    0.1041 N   0  0  0  0  0  0  0  0  0  0  0  0
   -0.8084    1.1156    0.0052 C   0  0  0  0  0  0  0  0  0  0  0  0
   -1.8773    0.1453    0.3019 C   0  0  1  0  0  0  0  0  0  0  0  0
   -3.2659    0.8480    0.1736 C   0  0  0  0  0  0  0  0  0  0  0  0
   -4.1414   -0.3803    0.1791 C   0  0  0  0  0  0  0  0  0  0  0  0
   -3.4195   -1.4175   -0.3064 O   0  0  0  0  0  0  0  0  0  0  0  0
   -2.1095   -1.0044   -0.6019 C   0  0  0  0  0  0  0  0  0  0  0  0
    5.0392   -0.7786   -0.3903 H   0  0  0  0  0  0  0  0  0  0  0  0
    5.4160    0.9121   -0.4571 H   0  0  0  0  0  0  0  0  0  0  0  0
    3.0520    1.2159    0.3425 H   0  0  0  0  0  0  0  0  0  0  0  0
    3.3858    0.9403   -1.4042 H   0  0  0  0  0  0  0  0  0  0  0  0
    2.5421   -1.1080    0.7164 H   0  0  0  0  0  0  0  0  0  0  0  0
    2.7313   -1.6267   -2.1121 H   0  0  0  0  0  0  0  0  0  0  0  0
    1.1105    0.9845    0.9009 H   0  0  0  0  0  0  0  0  0  0  0  0
   -0.9623    1.5094   -1.0482 H   0  0  0  0  0  0  0  0  0  0  0  0
   -0.8851    2.0191    0.6909 H   0  0  0  0  0  0  0  0  0  0  0  0
   -1.8572   -0.2284    1.3583 H   0  0  0  0  0  0  0  0  0  0  0  0
   -3.4335    1.5071    1.0228 H   0  0  0  0  0  0  0  0  0  0  0  0
   -3.3334    1.3133   -0.8163 H   0  0  0  0  0  0  0  0  0  0  0  0
   -5.0950   -0.2058   -0.3936 H   0  0  0  0  0  0  0  0  0  0  0  0
   -4.4250   -0.5590    1.2512 H   0  0  0  0  0  0  0  0  0  0  0  0
   -2.1242   -0.7433   -1.6674 H   0  0  0  0  0  0  0  0  0  0  0  0
   -1.4560   -1.8837   -0.3527 H   0  0  0  0  0  0  0  0  0  0  0  0
  1  2  1  0
  2  3  1  0
  3  4  1  0
  3  5  1  0
  5  6  2  0
  5  7  1  0
  7  8  1  0
  8  9  1  0
  9 10  1  0
 10 11  1  0
 11 12  1  0
 12 13  1  0
 13  9  1  0
  1 14  1  0
  1 15  1  0
  2 16  1  0
  2 17  1  0
  3 18  1  1
  4 19  1  0
  7 20  1  0
  8 21  1  0
  8 22  1  0
  9 23  1  1
 10 24  1  0
 10 25  1  0
 11 26  1  0
 11 27  1  0
 13 28  1  0
 13 29  1  0
M  END
$$$$

     RDKit          3D

 29 29  0  0  0  0  0  0  0  0999 V2000
    4.1084    0.8287   -1.3079 N   0  0  0  0  0  0  0  0  0  0  0  0
    3.8200    0.0908   -0.0905 C   0  0  0  0  0  0  0  0  0  0  0  0
    2.5174    0.5875    0.4896 C   0  0  2  0  0  0  0  0  0  0  0  0
    2.1875   -0.0762    1.6503 O   0  0  0  0  0  0  0  0  0  0  0  0
    1.4043    0.5335   -0.4664 C   0  0  0  0  0  0  0  0  0  0  0  0
    1.4622    1.0750   -1.6178 O   0  0  0  0  0  0  0  0  0  0  0  0
    0.2066   -0.1450   -0.1119 N   0  0  0  0  0  0  0  0  0  0  0  0
   -0.9317   -0.2278   -1.0278 C   0  0  0  0  0  0  0  0  0  0  0  0
   -2.0085   -1.0022   -0.3426 C   0  0  1  0  0  0  0  0  0  0  0  0
   -2.3744   -0.2433    0.9338 C   0  0  0  0  0  0  0  0  0  0  0  0
   -3.6325    0.4822    0.4710 C   0  0  0  0  0  0  0  0  0  0  0  0
   -4.2902   -0.5336   -0.2154 O   0  0  0  0  0  0  0  0  0  0  0  0
   -3.3073   -1.0366   -1.0674 C   0  0  0  0  0  0  0  0  0  0  0  0
    3.6879    1.7815   -1.2236 H   0  0  0  0  0  0  0  0  0  0  0  0
    5.1446    0.9709   -1.4321 H   0  0  0  0  0  0  0  0  0  0  0  0
    4.6236    0.3621    0.6385 H   0  0  0  0  0  0  0  0  0  0  0  0
    3.8449   -0.9899   -0.2270 H   0  0  0  0  0  0  0  0  0  0  0  0
    2.6600    1.6679    0.7662 H   0  0  0  0  0  0  0  0  0  0  0  0
    2.8553   -0.7954    1.8102 H   0  0  0  0  0  0  0  0  0  0  0  0
    0.1743   -0.5915    0.8525 H   0  0  0  0  0  0  0  0  0  0  0  0
   -1.3052    0.8254   -1.1535 H   0  0  0  0  0  0  0  0  0  0  0  0
   -0.6356   -0.6426   -2.0062 H   0  0  0  0  0  0  0  0  0  0  0  0
   -1.6131   -1.9991   -0.0882 H   0  0  0  0  0  0  0  0  0  0  0  0
   -2.6093   -0.9420    1.7428 H   0  0  0  0  0  0  0  0  0  0  0  0
   -1.6108    0.5026    1.2055 H   0  0  0  0  0  0  0  0  0  0  0  0
   -3.3263    1.2620   -0.2521 H   0  0  0  0  0  0  0  0  0  0  0  0
   -4.1676    0.8499    1.3453 H   0  0  0  0  0  0  0  0  0  0  0  0
   -3.5711   -2.1124   -1.2370 H   0  0  0  0  0  0  0  0  0  0  0  0
   -3.3136   -0.4823   -2.0243 H   0  0  0  0  0  0  0  0  0  0  0  0
  1  2  1  0
  2  3  1  0
  3  4  1  0
  3  5  1  0
  5  6  2  0
  5  7  1  0
  7  8  1  0
  8  9  1  0
  9 10  1  0
 10 11  1  0
 11 12  1  0
 12 13  1  0
 13  9  1  0
  1 14  1  0
  1 15  1  0
  2 16  1  0
  2 17  1  0
  3 18  1  1
  4 19  1  0
  7 20  1  0
  8 21  1  0
  8 22  1  0
  9 23  1  1
 10 24  1  0
 10 25  1  0
 11 26  1  0
 11 27  1  0
 13 28  1  0
 13 29  1  0
M  END
$$$$

     RDKit          3D

 29 29  0  0  0  0  0  0  0  0999 V2000
    3.7638    0.9779    1.1808 N   0  0  0  0  0  0  0  0  0  0  0  0
    3.7234    0.2520   -0.0696 C   0  0  0  0  0  0  0  0  0  0  0  0
    2.6396   -0.8336    0.0042 C   0  0  2  0  0  0  0  0  0  0  0  0
    2.6599   -1.4855   -1.2263 O   0  0  0  0  0  0  0  0  0  0  0  0
    1.3519   -0.0859    0.1459 C   0  0  0  0  0  0  0  0  0  0  0  0
    1.1242    0.5745    1.1847 O   0  0  0  0  0  0  0  0  0  0  0  0
    0.3613   -0.0981   -0.8722 N   0  0  0  0  0  0  0  0  0  0  0  0
   -0.8903    0.6071   -0.7760 C   0  0  0  0  0  0  0  0  0  0  0  0
   -1.7357    0.1742    0.3861 C   0  0  1  0  0  0  0  0  0  0  0  0
   -3.0104    1.0043    0.3491 C   0  0  0  0  0  0  0  0  0  0  0  0
   -3.8105    0.2772   -0.7043 C   0  0  0  0  0  0  0  0  0  0  0  0
   -3.1406   -0.8732   -1.0290 O   0  0  0  0  0  0  0  0  0  0  0  0
   -2.3085   -1.2054    0.0366 C   0  0  0  0  0  0  0  0  0  0  0  0
    3.3540    0.4382    1.9705 H   0  0  0  0  0  0  0  0  0  0  0  0
    4.7385    1.2941    1.3715 H   0  0  0  0  0  0  0  0  0  0  0  0
    3.4680    0.9364   -0.9047 H   0  0  0  0  0  0  0  0  0  0  0  0
    4.7227   -0.1849   -0.2385 H   0  0  0  0  0  0  0  0  0  0  0  0
    2.8165   -1.5184    0.8348 H   0  0  0  0  0  0  0  0  0  0  0  0
    2.4289   -2.4342   -1.1763 H   0  0  0  0  0  0  0  0  0  0  0  0
    0.6080   -0.6746   -1.7306 H   0  0  0  0  0  0  0  0  0  0  0  0
   -1.4683    0.4138   -1.7028 H   0  0  0  0  0  0  0  0  0  0  0  0
   -0.7685    1.7057   -0.7110 H   0  0  0  0  0  0  0  0  0  0  0  0
   -1.2359    0.1875    1.3510 H   0  0  0  0  0  0  0  0  0  0  0  0
   -2.7571    2.0310    0.0694 H   0  0  0  0  0  0  0  0  0  0  0  0
   -3.5256    1.0067    1.3405 H   0  0  0  0  0  0  0  0  0  0  0  0
   -3.8789    0.9155   -1.6335 H   0  0  0  0  0  0  0  0  0  0  0  0
   -4.8302    0.0722   -0.3180 H   0  0  0  0  0  0  0  0  0  0  0  0
   -1.5098   -1.8862   -0.2665 H   0  0  0  0  0  0  0  0  0  0  0  0
   -2.8905   -1.5881    0.9015 H   0  0  0  0  0  0  0  0  0  0  0  0
  1  2  1  0
  2  3  1  0
  3  4  1  0
  3  5  1  0
  5  6  2  0
  5  7  1  0
  7  8  1  0
  8  9  1  0
  9 10  1  0
 10 11  1  0
 11 12  1  0
 12 13  1  0
 13  9  1  0
  1 14  1  0
  1 15  1  0
  2 16  1  0
  2 17  1  0
  3 18  1  1
  4 19  1  0
  7 20  1  0
  8 21  1  0
  8 22  1  0
  9 23  1  1
 10 24  1  0
 10 25  1  0
 11 26  1  0
 11 27  1  0
 13 28  1  0
 13 29  1  0
M  END
$$$$
