
     RDKit          3D

 26 27  0  0  0  0  0  0  0  0999 V2000
   -3.4047    1.1094   -0.3364 C   0  0  0  0  0  0  0  0  0  0  0  0
   -2.6216    0.4459    0.5994 O   0  0  0  0  0  0  0  0  0  0  0  0
   -1.4318    0.0978    0.0111 C   0  0  1  0  0  0  0  0  0  0  0  0
   -0.3102    0.7154    0.8154 C   0  0  0  0  0  0  0  0  0  0  0  0
    0.8087   -0.1107    0.4189 N   0  0  0  0  0  0  0  0  0  0  0  0
    2.0753    0.3885    0.0357 C   0  0  0  0  0  0  0  0  0  0  0  0
    2.4742    1.6706   -0.0335 N   0  0  0  0  0  0  0  0  0  0  0  0
    3.7518    1.7435   -0.4397 C   0  0  0  0  0  0  0  0  0  0  0  0
    4.1720    0.4847   -0.6320 N   0  0  0  0  0  0  0  0  0  0  0  0
    3.1636   -0.3266   -0.3458 N   0  0  0  0  0  0  0  0  0  0  0  0
    0.3496   -1.4740    0.5038 C   0  0  0  0  0  0  0  0  0  0  0  0
   -1.1194   -1.3791    0.1443 C   0  0  2  0  0  0  0  0  0  0  0  0
   -1.3681   -1.9812   -1.1541 N   0  0  0  0  0  0  0  0  0  0  0  0
   -4.3840    1.3973    0.1430 H   0  0  0  0  0  0  0  0  0  0  0  0
   -3.6289    0.4737   -1.2285 H   0  0  0  0  0  0  0  0  0  0  0  0
   -2.9113    2.0256   -0.7322 H   0  0  0  0  0  0  0  0  0  0  0  0
   -1.3885    0.4270   -1.0513 H   0  0  0  0  0  0  0  0  0  0  0  0
   -0.5247    0.5094    1.8802 H   0  0  0  0  0  0  0  0  0  0  0  0
   -0.1603    1.7810    0.5911 H   0  0  0  0  0  0  0  0  0  0  0  0
    4.3296    2.6388   -0.5841 H   0  0  0  0  0  0  0  0  0  0  0  0
    5.1116    0.1593   -0.9481 H   0  0  0  0  0  0  0  0  0  0  0  0
    0.4134   -1.7746    1.5809 H   0  0  0  0  0  0  0  0  0  0  0  0
    0.9102   -2.1645   -0.1417 H   0  0  0  0  0  0  0  0  0  0  0  0
   -1.7723   -1.8334    0.9065 H   0  0  0  0  0  0  0  0  0  0  0  0
   -2.0306   -2.7877   -1.1017 H   0  0  0  0  0  0  0  0  0  0  0  0
   -0.5037   -2.2361   -1.6567 H   0  0  0  0  0  0  0  0  0  0  0  0
  1  2  1  0
  2  3  1  0
  3  4  1  0
  4  5  1  0
  5  6  1  0
  6  7  1  0
  7  8  2  0
  8  9  1  0
  9 10  1  0
  5 11  1  0
 11 12  1  0
 12 13  1  0
 12  3  1  0
 10  6  2  0
  1 14  1  0
  1 15  1  0
  1 16  1  0
  3 17  1  6
  4 18  1  0
  4 19  1  0
  8 20  1  0
  9 21  1  0
 11 22  1  0
 11 23  1  0
 12 24  1  1
 13 25  1  0
 13 26  1  0
M  END
$$$$

     RDKit          3D

 26 27  0  0  0  0  0  0  0  0999 V2000
    3.2927    1.4552    0.4995 C   0  0  0  0  0  0  0  0  0  0  0  0
    2.6490    0.6938   -0.4469 O   0  0  0  0  0  0  0  0  0  0  0  0
    1.4354    0.2652    0.0477 C   0  0  1  0  0  0  0  0  0  0  0  0
    0.2708    0.7366   -0.8314 C   0  0  0  0  0  0  0  0  0  0  0  0
   -0.7787   -0.1599   -0.3868 N   0  0  0  0  0  0  0  0  0  0  0  0
   -2.1681    0.1451   -0.4131 C   0  0  0  0  0  0  0  0  0  0  0  0
   -2.7707    1.2736   -0.8350 N   0  0  0  0  0  0  0  0  0  0  0  0
   -4.1038    1.1920   -0.7060 C   0  0  0  0  0  0  0  0  0  0  0  0
   -4.3468   -0.0249   -0.1870 N   0  0  0  0  0  0  0  0  0  0  0  0
   -3.1958   -0.6515   -0.0112 N   0  0  0  0  0  0  0  0  0  0  0  0
   -0.2116   -1.4065    0.0862 C   0  0  0  0  0  0  0  0  0  0  0  0
    1.2858   -1.2363   -0.0710 C   0  0  2  0  0  0  0  0  0  0  0  0
    2.0266   -1.8346    1.0117 N   0  0  0  0  0  0  0  0  0  0  0  0
    3.5012    0.9196    1.4478 H   0  0  0  0  0  0  0  0  0  0  0  0
    2.6369    2.3358    0.7227 H   0  0  0  0  0  0  0  0  0  0  0  0
    4.2890    1.7864    0.0922 H   0  0  0  0  0  0  0  0  0  0  0  0
    1.2192    0.6028    1.0725 H   0  0  0  0  0  0  0  0  0  0  0  0
    0.0580    1.7917   -0.6482 H   0  0  0  0  0  0  0  0  0  0  0  0
    0.5315    0.5194   -1.9001 H   0  0  0  0  0  0  0  0  0  0  0  0
   -4.8437    1.9405   -0.9615 H   0  0  0  0  0  0  0  0  0  0  0  0
   -5.2850   -0.4108    0.0392 H   0  0  0  0  0  0  0  0  0  0  0  0
   -0.4515   -1.5511    1.1677 H   0  0  0  0  0  0  0  0  0  0  0  0
   -0.5972   -2.2716   -0.5142 H   0  0  0  0  0  0  0  0  0  0  0  0
    1.6700   -1.5968   -1.0281 H   0  0  0  0  0  0  0  0  0  0  0  0
    1.5832   -1.6952    1.9335 H   0  0  0  0  0  0  0  0  0  0  0  0
    2.3037   -2.8186    0.8197 H   0  0  0  0  0  0  0  0  0  0  0  0
  1  2  1  0
  2  3  1  0
  3  4  1  0
  4  5  1  0
  5  6  1  0
  6  7  1  0
  7  8  2  0
  8  9  1  0
  9 10  1  0
  5 11  1  0
 11 12  1  0
 12 13  1  0
 12  3  1  0
 10  6  2  0
  1 14  1  0
  1 15  1  0
  1 16  1  0
  3 17  1  1
  4 18  1  0
  4 19  1  0
  8 20  1  0
  9 21  1  0
 11 22  1  0
 11 23  1  0
 12 24  1  6
 13 25  1  0
 13 26  1  0
M  END
$$$$

     RDKit          3D

 26 27  0  0  0  0  0  0  0  0999 V2000
   -3.4327    1.1799   -0.5470 C   0  0  0  0  0  0  0  0  0  0  0  0
   -2.4425    0.9305    0.4310 O   0  0  0  0  0  0  0  0  0  0  0  0
   -1.4233    0.2587   -0.1983 C   0  0  1  0  0  0  0  0  0  0  0  0
   -0.0843    0.9474   -0.0129 C   0  0  0  0  0  0  0  0  0  0  0  0
    0.9106   -0.1056   -0.0734 N   0  0  0  0  0  0  0  0  0  0  0  0
    2.3116    0.1435   -0.0856 C   0  0  0  0  0  0  0  0  0  0  0  0
    3.2843   -0.7938   -0.1412 N   0  0  0  0  0  0  0  0  0  0  0  0
    4.4621   -0.1503   -0.1329 C   0  0  0  0  0  0  0  0  0  0  0  0
    4.2567    1.1720   -0.0734 N   0  0  0  0  0  0  0  0  0  0  0  0
    2.9440    1.3125   -0.0461 N   0  0  0  0  0  0  0  0  0  0  0  0
    0.2388   -1.3884   -0.1168 C   0  0  0  0  0  0  0  0  0  0  0  0
   -1.1278   -1.0961    0.4590 C   0  0  2  0  0  0  0  0  0  0  0  0
   -2.1094   -2.0797    0.1047 N   0  0  0  0  0  0  0  0  0  0  0  0
   -2.9743    1.7997   -1.3563 H   0  0  0  0  0  0  0  0  0  0  0  0
   -3.8259    0.2237   -0.9626 H   0  0  0  0  0  0  0  0  0  0  0  0
   -4.2882    1.7266   -0.1284 H   0  0  0  0  0  0  0  0  0  0  0  0
   -1.6021    0.0764   -1.2704 H   0  0  0  0  0  0  0  0  0  0  0  0
   -0.0381    1.5016    0.9509 H   0  0  0  0  0  0  0  0  0  0  0  0
    0.0484    1.6269   -0.8838 H   0  0  0  0  0  0  0  0  0  0  0  0
    5.4425   -0.6039   -0.1681 H   0  0  0  0  0  0  0  0  0  0  0  0
    4.9464    1.9539   -0.0513 H   0  0  0  0  0  0  0  0  0  0  0  0
    0.7807   -2.1685    0.4485 H   0  0  0  0  0  0  0  0  0  0  0  0
    0.0918   -1.6417   -1.1831 H   0  0  0  0  0  0  0  0  0  0  0  0
   -1.0321   -0.9834    1.5552 H   0  0  0  0  0  0  0  0  0  0  0  0
   -2.9438   -1.9174    0.7304 H   0  0  0  0  0  0  0  0  0  0  0  0
   -2.3934   -1.9245   -0.8930 H   0  0  0  0  0  0  0  0  0  0  0  0
  1  2  1  0
  2  3  1  0
  3  4  1  0
  4  5  1  0
  5  6  1  0
  6  7  1  0
  7  8  2  0
  8  9  1  0
  9 10  1  0
  5 11  1  0
 11 12  1  0
 12 13  1  0
 12  3  1  0
 10  6  2  0
  1 14  1  0
  1 15  1  0
  1 16  1  0
  3 17  1  6
  4 18  1  0
  4 19  1  0
  8 20  1  0
  9 21  1  0
 11 22  1  0
 11 23  1  0
 12 24  1  1
 13 25  1  0
 13 26  1  0
M  END
$$$$

     RDKit          3D

 26 27  0  0  0  0  0  0  0  0999 V2000
   -3.6178    0.0177    0.5702 C   0  0  0  0  0  0  0  0  0  0  0  0
   -2.7505   -0.6672   -0.2758 O   0  0  0  0  0  0  0  0  0  0  0  0
   -1.4902   -0.1558   -0.1306 C   0  0  1  0  0  0  0  0  0  0  0  0
   -0.5160   -1.2312    0.3613 C   0  0  0  0  0  0  0  0  0  0  0  0
    0.7422   -0.6951   -0.1617 N   0  0  0  0  0  0  0  0  0  0  0  0
    1.9582   -0.4883    0.5216 C   0  0  0  0  0  0  0  0  0  0  0  0
    3.0719    0.0120   -0.0395 N   0  0  0  0  0  0  0  0  0  0  0  0
    4.0617    0.0829    0.8893 C   0  0  0  0  0  0  0  0  0  0  0  0
    3.5406   -0.3823    2.0344 N   0  0  0  0  0  0  0  0  0  0  0  0
    2.2795   -0.7219    1.8033 N   0  0  0  0  0  0  0  0  0  0  0  0
    0.4525   -0.4218   -1.5568 C   0  0  0  0  0  0  0  0  0  0  0  0
   -0.8812    0.3026   -1.4445 C   0  0  2  0  0  0  0  0  0  0  0  0
   -0.6202    1.6815   -1.3717 N   0  0  0  0  0  0  0  0  0  0  0  0
   -4.6608   -0.3505    0.5002 H   0  0  0  0  0  0  0  0  0  0  0  0
   -3.2891   -0.1062    1.6280 H   0  0  0  0  0  0  0  0  0  0  0  0
   -3.5722    1.1043    0.2999 H   0  0  0  0  0  0  0  0  0  0  0  0
   -1.4959    0.6592    0.6144 H   0  0  0  0  0  0  0  0  0  0  0  0
   -0.5094   -1.3019    1.4527 H   0  0  0  0  0  0  0  0  0  0  0  0
   -0.7096   -2.1628   -0.1691 H   0  0  0  0  0  0  0  0  0  0  0  0
    5.0460    0.4552    0.6599 H   0  0  0  0  0  0  0  0  0  0  0  0
    4.0888   -0.4392    2.9160 H   0  0  0  0  0  0  0  0  0  0  0  0
    1.2192    0.2121   -2.0343 H   0  0  0  0  0  0  0  0  0  0  0  0
    0.3091   -1.3967   -2.0549 H   0  0  0  0  0  0  0  0  0  0  0  0
   -1.5387    0.0767   -2.3118 H   0  0  0  0  0  0  0  0  0  0  0  0
   -0.6595    2.1470   -0.4837 H   0  0  0  0  0  0  0  0  0  0  0  0
   -0.4588    2.2000   -2.2166 H   0  0  0  0  0  0  0  0  0  0  0  0
  1  2  1  0
  2  3  1  0
  3  4  1  0
  4  5  1  0
  5  6  1  0
  6  7  1  0
  7  8  2  0
  8  9  1  0
  9 10  1  0
  5 11  1  0
 11 12  1  0
 12 13  1  0
 12  3  1  0
 10  6  2  0
  1 14  1  0
  1 15  1  0
  1 16  1  0
  3 17  1  1
  4 18  1  0
  4 19  1  0
  8 20  1  0
  9 21  1  0
 11 22  1  0
 11 23  1  0
 12 24  1  6
 13 25  1  0
 13 26  1  0
M  END
$$$$

     RDKit          3D

 26 27  0  0  0  0  0  0  0  0999 V2000
   -3.1274    1.6414   -0.7575 C   0  0  0  0  0  0  0  0  0  0  0  0
   -2.3427    1.3201    0.3524 O   0  0  0  0  0  0  0  0  0  0  0  0
   -1.3133    0.4711    0.0444 C   0  0  1  0  0  0  0  0  0  0  0  0
    0.0494    1.0291    0.4770 C   0  0  0  0  0  0  0  0  0  0  0  0
    0.8796   -0.1337    0.2390 N   0  0  0  0  0  0  0  0  0  0  0  0
    2.2010   -0.1302   -0.2799 C   0  0  0  0  0  0  0  0  0  0  0  0
    2.9810   -1.2070   -0.5048 N   0  0  0  0  0  0  0  0  0  0  0  0
    4.1610   -0.7651   -1.0014 C   0  0  0  0  0  0  0  0  0  0  0  0
    4.1153    0.5721   -1.0845 N   0  0  0  0  0  0  0  0  0  0  0  0
    2.9318    0.9230   -0.6464 N   0  0  0  0  0  0  0  0  0  0  0  0
    0.1015   -1.2934    0.6316 C   0  0  0  0  0  0  0  0  0  0  0  0
   -1.2990   -0.7825    0.8988 C   0  0  2  0  0  0  0  0  0  0  0  0
   -2.3159   -1.7217    0.5238 N   0  0  0  0  0  0  0  0  0  0  0  0
   -3.9330    2.3224   -0.4479 H   0  0  0  0  0  0  0  0  0  0  0  0
   -3.5728    0.7204   -1.1896 H   0  0  0  0  0  0  0  0  0  0  0  0
   -2.5295    2.1009   -1.5725 H   0  0  0  0  0  0  0  0  0  0  0  0
   -1.2696    0.1778   -1.0304 H   0  0  0  0  0  0  0  0  0  0  0  0
    0.3379    1.9128   -0.0688 H   0  0  0  0  0  0  0  0  0  0  0  0
   -0.0186    1.1532    1.5743 H   0  0  0  0  0  0  0  0  0  0  0  0
    4.9999   -1.3788   -1.2843 H   0  0  0  0  0  0  0  0  0  0  0  0
    4.8699    1.2122   -1.4290 H   0  0  0  0  0  0  0  0  0  0  0  0
    0.5391   -1.7735    1.5279 H   0  0  0  0  0  0  0  0  0  0  0  0
    0.0592   -2.0532   -0.1715 H   0  0  0  0  0  0  0  0  0  0  0  0
   -1.4142   -0.4249    1.9610 H   0  0  0  0  0  0  0  0  0  0  0  0
   -3.1461   -1.3191    0.0827 H   0  0  0  0  0  0  0  0  0  0  0  0
   -1.9445   -2.5733    0.0718 H   0  0  0  0  0  0  0  0  0  0  0  0
  1  2  1  0
  2  3  1  0
  3  4  1  0
  4  5  1  0
  5  6  1  0
  6  7  1  0
  7  8  2  0
  8  9  1  0
  9 10  1  0
  5 11  1  0
 11 12  1  0
 12 13  1  0
 12  3  1  0
 10  6  2  0
  1 14  1  0
  1 15  1  0
  1 16  1  0
  3 17  1  6
  4 18  1  0
  4 19  1  0
  8 20  1  0
  9 21  1  0
 11 22  1  0
 11 23  1  0
 12 24  1  1
 13 25  1  0
 13 26  1  0
M  END
$$$$

     RDKit          3D

 26 27  0  0  0  0  0  0  0  0999 V2000
    2.5570    2.2165    1.2992 C   0  0  0  0  0  0  0  0  0  0  0  0
    2.3626    1.3204    0.2847 O   0  0  0  0  0  0  0  0  0  0  0  0
    1.2031    0.6102    0.3267 C   0  0  1  0  0  0  0  0  0  0  0  0
    0.3909    0.7040   -0.9625 C   0  0  0  0  0  0  0  0  0  0  0  0
   -0.5155   -0.3853   -0.7447 N   0  0  0  0  0  0  0  0  0  0  0  0
   -1.9083   -0.3393   -0.8734 C   0  0  0  0  0  0  0  0  0  0  0  0
   -2.6720    0.7376   -1.2270 N   0  0  0  0  0  0  0  0  0  0  0  0
   -3.9629    0.3808   -1.2387 C   0  0  0  0  0  0  0  0  0  0  0  0
   -4.0456   -0.9034   -0.9001 N   0  0  0  0  0  0  0  0  0  0  0  0
   -2.8180   -1.3296   -0.6829 N   0  0  0  0  0  0  0  0  0  0  0  0
    0.2867   -1.5098   -0.3747 C   0  0  0  0  0  0  0  0  0  0  0  0
    1.5175   -0.8904    0.3019 C   0  0  2  0  0  0  0  0  0  0  0  0
    1.7111   -1.4096    1.6250 N   0  0  0  0  0  0  0  0  0  0  0  0
    1.8014    3.0041    1.3845 H   0  0  0  0  0  0  0  0  0  0  0  0
    2.6241    1.7233    2.3098 H   0  0  0  0  0  0  0  0  0  0  0  0
    3.5700    2.6744    1.1506 H   0  0  0  0  0  0  0  0  0  0  0  0
    0.5375    0.8299    1.1756 H   0  0  0  0  0  0  0  0  0  0  0  0
   -0.1536    1.6636   -1.0338 H   0  0  0  0  0  0  0  0  0  0  0  0
    1.0341    0.5098   -1.8418 H   0  0  0  0  0  0  0  0  0  0  0  0
   -4.7793    1.0282   -1.4811 H   0  0  0  0  0  0  0  0  0  0  0  0
   -4.9117   -1.4901   -0.8145 H   0  0  0  0  0  0  0  0  0  0  0  0
   -0.2198   -2.2264    0.2951 H   0  0  0  0  0  0  0  0  0  0  0  0
    0.6358   -1.9930   -1.3203 H   0  0  0  0  0  0  0  0  0  0  0  0
    2.4216   -1.0005   -0.3334 H   0  0  0  0  0  0  0  0  0  0  0  0
    0.8409   -1.8179    2.0292 H   0  0  0  0  0  0  0  0  0  0  0  0
    2.4927   -2.1075    1.6465 H   0  0  0  0  0  0  0  0  0  0  0  0
  1  2  1  0
  2  3  1  0
  3  4  1  0
  4  5  1  0
  5  6  1  0
  6  7  1  0
  7  8  2  0
  8  9  1  0
  9 10  1  0
  5 11  1  0
 11 12  1  0
 12 13  1  0
 12  3  1  0
 10  6  2  0
  1 14  1  0
  1 15  1  0
  1 16  1  0
  3 17  1  1
  4 18  1  0
  4 19  1  0
  8 20  1  0
  9 21  1  0
 11 22  1  0
 11 23  1  0
 12 24  1  6
 13 25  1  0
 13 26  1  0
M  END
$$$$

     RDKit          3D

 26 27  0  0  0  0  0  0  0  0999 V2000
   -3.5439    0.4731   -0.9996 C   0  0  0  0  0  0  0  0  0  0  0  0
   -2.7855    0.4154    0.1630 O   0  0  0  0  0  0  0  0  0  0  0  0
   -1.4926   -0.0083   -0.0547 C   0  0  1  0  0  0  0  0  0  0  0  0
   -0.4511    0.9903    0.3112 C   0  0  0  0  0  0  0  0  0  0  0  0
    0.7083    0.2112    0.6416 N   0  0  0  0  0  0  0  0  0  0  0  0
    2.0528    0.6396    0.5541 C   0  0  0  0  0  0  0  0  0  0  0  0
    3.1745   -0.0724    0.8589 N   0  0  0  0  0  0  0  0  0  0  0  0
    4.2376    0.6974    0.6375 C   0  0  0  0  0  0  0  0  0  0  0  0
    3.7877    1.8838    0.1969 N   0  0  0  0  0  0  0  0  0  0  0  0
    2.4719    1.8532    0.1452 N   0  0  0  0  0  0  0  0  0  0  0  0
    0.2929   -1.1179    1.0914 C   0  0  0  0  0  0  0  0  0  0  0  0
   -1.1328   -1.2635    0.6657 C   0  0  2  0  0  0  0  0  0  0  0  0
   -1.3092   -2.4233   -0.2002 N   0  0  0  0  0  0  0  0  0  0  0  0
   -3.1202    1.1675   -1.7501 H   0  0  0  0  0  0  0  0  0  0  0  0
   -3.6287   -0.5591   -1.4043 H   0  0  0  0  0  0  0  0  0  0  0  0
   -4.5624    0.8063   -0.7322 H   0  0  0  0  0  0  0  0  0  0  0  0
   -1.4016   -0.1992   -1.1596 H   0  0  0  0  0  0  0  0  0  0  0  0
   -0.7269    1.6402    1.1664 H   0  0  0  0  0  0  0  0  0  0  0  0
   -0.2326    1.6787   -0.5354 H   0  0  0  0  0  0  0  0  0  0  0  0
    5.2562    0.3976    0.7918 H   0  0  0  0  0  0  0  0  0  0  0  0
    4.4472    2.6777   -0.0522 H   0  0  0  0  0  0  0  0  0  0  0  0
    0.9436   -1.8482    0.5964 H   0  0  0  0  0  0  0  0  0  0  0  0
    0.3829   -1.1116    2.1983 H   0  0  0  0  0  0  0  0  0  0  0  0
   -1.7576   -1.4355    1.5649 H   0  0  0  0  0  0  0  0  0  0  0  0
   -0.7045   -2.2387   -1.0509 H   0  0  0  0  0  0  0  0  0  0  0  0
   -0.9060   -3.2543    0.2738 H   0  0  0  0  0  0  0  0  0  0  0  0
  1  2  1  0
  2  3  1  0
  3  4  1  0
  4  5  1  0
  5  6  1  0
  6  7  1  0
  7  8  2  0
  8  9  1  0
  9 10  1  0
  5 11  1  0
 11 12  1  0
 12 13  1  0
 12  3  1  0
 10  6  2  0
  1 14  1  0
  1 15  1  0
  1 16  1  0
  3 17  1  6
  4 18  1  0
  4 19  1  0
  8 20  1  0
  9 21  1  0
 11 22  1  0
 11 23  1  0
 12 24  1  1
 13 25  1  0
 13 26  1  0
M  END
$$$$

     RDKit          3D

 26 27  0  0  0  0  0  0  0  0999 V2000
   -2.3635    2.6451    0.4868 C   0  0  0  0  0  0  0  0  0  0  0  0
   -1.4095    1.6919    0.8437 O   0  0  0  0  0  0  0  0  0  0  0  0
   -1.3630    0.7057   -0.1463 C   0  0  1  0  0  0  0  0  0  0  0  0
    0.0355    0.7089   -0.7392 C   0  0  0  0  0  0  0  0  0  0  0  0
    0.6979   -0.4547   -0.2162 N   0  0  0  0  0  0  0  0  0  0  0  0
    2.1037   -0.6232   -0.0859 C   0  0  0  0  0  0  0  0  0  0  0  0
    3.0542    0.2655   -0.4250 N   0  0  0  0  0  0  0  0  0  0  0  0
    4.2725   -0.2817   -0.1412 C   0  0  0  0  0  0  0  0  0  0  0  0
    4.0566   -1.4981    0.3680 N   0  0  0  0  0  0  0  0  0  0  0  0
    2.7646   -1.6963    0.3987 N   0  0  0  0  0  0  0  0  0  0  0  0
   -0.3194   -1.4120    0.1491 C   0  0  0  0  0  0  0  0  0  0  0  0
   -1.5875   -0.6580    0.4098 C   0  0  2  0  0  0  0  0  0  0  0  0
   -2.7255   -1.2673   -0.2525 N   0  0  0  0  0  0  0  0  0  0  0  0
   -3.3580    2.1777    0.3911 H   0  0  0  0  0  0  0  0  0  0  0  0
   -2.1145    3.0529   -0.5284 H   0  0  0  0  0  0  0  0  0  0  0  0
   -2.3861    3.4531    1.2482 H   0  0  0  0  0  0  0  0  0  0  0  0
   -2.0883    0.9285   -0.9557 H   0  0  0  0  0  0  0  0  0  0  0  0
    0.5956    1.6032   -0.4187 H   0  0  0  0  0  0  0  0  0  0  0  0
   -0.0140    0.7114   -1.8463 H   0  0  0  0  0  0  0  0  0  0  0  0
    5.1975    0.2344   -0.3225 H   0  0  0  0  0  0  0  0  0  0  0  0
    4.8117   -2.1476    0.6762 H   0  0  0  0  0  0  0  0  0  0  0  0
   -0.4426   -2.1683   -0.6673 H   0  0  0  0  0  0  0  0  0  0  0  0
   -0.0250   -1.9741    1.0601 H   0  0  0  0  0  0  0  0  0  0  0  0
   -1.8029   -0.6197    1.4989 H   0  0  0  0  0  0  0  0  0  0  0  0
   -2.7053   -1.1218   -1.2738 H   0  0  0  0  0  0  0  0  0  0  0  0
   -2.8846   -2.2555    0.0355 H   0  0  0  0  0  0  0  0  0  0  0  0
  1  2  1  0
  2  3  1  0
  3  4  1  0
  4  5  1  0
  5  6  1  0
  6  7  1  0
  7  8  2  0
  8  9  1  0
  9 10  1  0
  5 11  1  0
 11 12  1  0
 12 13  1  0
 12  3  1  0
 10  6  2  0
  1 14  1  0
  1 15  1  0
  1 16  1  0
  3 17  1  6
  4 18  1  0
  4 19  1  0
  8 20  1  0
  9 21  1  0
 11 22  1  0
 11 23  1  0
 12 24  1  1
 13 25  1  0
 13 26  1  0
M  END
$$$$
