
     RDKit          3D

 31 30  0  0  0  0  0  0  0  0999 V2000
    2.6767    1.6735    0.2713 C   0  0  0  0  0  0  0  0  0  0  0  0
    2.1018    0.5531   -0.5634 C   0  0  1  0  0  0  0  0  0  0  0  0
    3.0478   -0.6184   -0.4882 C   0  0  0  0  0  0  0  0  0  0  0  0
    2.5940   -1.6923   -1.2658 O   0  0  0  0  0  0  0  0  0  0  0  0
    0.7630    0.1834   -0.0770 N   0  0  0  0  0  0  0  0  0  0  0  0
    0.7196   -0.3018    1.2816 C   0  0  0  0  0  0  0  0  0  0  0  0
   -0.3509    0.3023   -0.9091 C   0  0  0  0  0  0  0  0  0  0  0  0
   -0.1209    0.7363   -2.1010 O   0  0  0  0  0  0  0  0  0  0  0  0
   -1.7485   -0.0006   -0.6044 C   0  0  1  0  0  0  0  0  0  0  0  0
   -2.0011   -1.3827   -0.0454 C   0  0  0  0  0  0  0  0  0  0  0  0
   -3.4592   -1.4493    0.1757 N   0  0  0  0  0  0  0  0  0  0  0  0
   -2.4738    1.0637    0.1876 C   0  0  0  0  0  0  0  0  0  0  0  0
   -2.4797    2.2817   -0.5239 O   0  0  0  0  0  0  0  0  0  0  0  0
    2.9002    2.5684   -0.3424 H   0  0  0  0  0  0  0  0  0  0  0  0
    3.6486    1.3795    0.7367 H   0  0  0  0  0  0  0  0  0  0  0  0
    1.9684    1.8852    1.0900 H   0  0  0  0  0  0  0  0  0  0  0  0
    2.0228    0.8993   -1.6021 H   0  0  0  0  0  0  0  0  0  0  0  0
    3.2808   -0.9194    0.5434 H   0  0  0  0  0  0  0  0  0  0  0  0
    4.0056   -0.2969   -0.9484 H   0  0  0  0  0  0  0  0  0  0  0  0
    2.8192   -2.5687   -0.8381 H   0  0  0  0  0  0  0  0  0  0  0  0
    0.7893   -1.4165    1.3297 H   0  0  0  0  0  0  0  0  0  0  0  0
    1.6210    0.0322    1.8691 H   0  0  0  0  0  0  0  0  0  0  0  0
   -0.1275    0.1249    1.8078 H   0  0  0  0  0  0  0  0  0  0  0  0
   -2.3369   -0.0347   -1.5850 H   0  0  0  0  0  0  0  0  0  0  0  0
   -1.7794   -2.1068   -0.8291 H   0  0  0  0  0  0  0  0  0  0  0  0
   -1.5605   -1.5771    0.9290 H   0  0  0  0  0  0  0  0  0  0  0  0
   -3.9811   -1.1582   -0.6810 H   0  0  0  0  0  0  0  0  0  0  0  0
   -3.6503   -2.4232    0.4617 H   0  0  0  0  0  0  0  0  0  0  0  0
   -3.5613    0.7513    0.1781 H   0  0  0  0  0  0  0  0  0  0  0  0
   -2.1232    1.2187    1.1985 H   0  0  0  0  0  0  0  0  0  0  0  0
   -3.2045    2.2930   -1.2111 H   0  0  0  0  0  0  0  0  0  0  0  0
  1  2  1  0
  2  3  1  0
  3  4  1  0
  2  5  1  0
  5  6  1  0
  5  7  1  0
  7  8  2  0
  7  9  1  0
  9 10  1  0
 10 11  1  0
  9 12  1  0
 12 13  1  0
  1 14  1  0
  1 15  1  0
  1 16  1  0
  2 17  1  6
  3 18  1  0
  3 19  1  0
  4 20  1  0
  6 21  1  0
  6 22  1  0
  6 23  1  0
  9 24  1  6
 10 25  1  0
 10 26  1  0
 11 27  1  0
 11 28  1  0
 12 29  1  0
 12 30  1  0
 13 31  1  0
M  END
$$$$

     RDKit          3D

 31 30  0  0  0  0  0  0  0  0999 V2000
   -2.8752   -0.0661    1.1374 C   0  0  0  0  0  0  0  0  0  0  0  0
   -2.2087   -0.2779   -0.2003 C   0  0  1  0  0  0  0  0  0  0  0  0
   -2.4236    0.9809   -1.0056 C   0  0  0  0  0  0  0  0  0  0  0  0
   -3.7756    1.2996   -1.1116 O   0  0  0  0  0  0  0  0  0  0  0  0
   -0.8229   -0.6346   -0.0737 N   0  0  0  0  0  0  0  0  0  0  0  0
   -0.3626   -1.9100   -0.5792 C   0  0  0  0  0  0  0  0  0  0  0  0
    0.1405    0.2268    0.5466 C   0  0  0  0  0  0  0  0  0  0  0  0
   -0.3127    1.3172    0.9839 O   0  0  0  0  0  0  0  0  0  0  0  0
    1.5545   -0.0621    0.6990 C   0  0  1  0  0  0  0  0  0  0  0  0
    2.3470   -0.1743   -0.5727 C   0  0  0  0  0  0  0  0  0  0  0  0
    3.7343   -0.4651   -0.1885 N   0  0  0  0  0  0  0  0  0  0  0  0
    2.2031    1.0324    1.5208 C   0  0  0  0  0  0  0  0  0  0  0  0
    2.0836    2.2714    0.9380 O   0  0  0  0  0  0  0  0  0  0  0  0
   -2.9940    1.0261    1.3652 H   0  0  0  0  0  0  0  0  0  0  0  0
   -2.3632   -0.6010    1.9586 H   0  0  0  0  0  0  0  0  0  0  0  0
   -3.9055   -0.4690    1.0790 H   0  0  0  0  0  0  0  0  0  0  0  0
   -2.7351   -1.1091   -0.7097 H   0  0  0  0  0  0  0  0  0  0  0  0
   -1.9106    1.8582   -0.6262 H   0  0  0  0  0  0  0  0  0  0  0  0
   -2.0676    0.8059   -2.0551 H   0  0  0  0  0  0  0  0  0  0  0  0
   -4.3141    0.8196   -0.4419 H   0  0  0  0  0  0  0  0  0  0  0  0
   -1.1768   -2.6938   -0.4996 H   0  0  0  0  0  0  0  0  0  0  0  0
    0.4487   -2.3214    0.0501 H   0  0  0  0  0  0  0  0  0  0  0  0
   -0.1395   -1.8903   -1.6656 H   0  0  0  0  0  0  0  0  0  0  0  0
    1.7454   -1.0306    1.2501 H   0  0  0  0  0  0  0  0  0  0  0  0
    2.0369   -1.0412   -1.1855 H   0  0  0  0  0  0  0  0  0  0  0  0
    2.3871    0.7760   -1.1359 H   0  0  0  0  0  0  0  0  0  0  0  0
    4.1992   -0.9143   -1.0095 H   0  0  0  0  0  0  0  0  0  0  0  0
    3.7946   -1.0750    0.6346 H   0  0  0  0  0  0  0  0  0  0  0  0
    1.7297    1.1066    2.5384 H   0  0  0  0  0  0  0  0  0  0  0  0
    3.2813    0.7966    1.7411 H   0  0  0  0  0  0  0  0  0  0  0  0
    2.7019    2.4186    0.1802 H   0  0  0  0  0  0  0  0  0  0  0  0
  1  2  1  0
  2  3  1  0
  3  4  1  0
  2  5  1  0
  5  6  1  0
  5  7  1  0
  7  8  2  0
  7  9  1  0
  9 10  1  0
 10 11  1  0
  9 12  1  0
 12 13  1  0
  1 14  1  0
  1 15  1  0
  1 16  1  0
  2 17  1  6
  3 18  1  0
  3 19  1  0
  4 20  1  0
  6 21  1  0
  6 22  1  0
  6 23  1  0
  9 24  1  1
 10 25  1  0
 10 26  1  0
 11 27  1  0
 11 28  1  0
 12 29  1  0
 12 30  1  0
 13 31  1  0
M  END
$$$$

     RDKit          3D

 31 30  0  0  0  0  0  0  0  0999 V2000
    1.8844    1.3853   -1.1558 C   0  0  0  0  0  0  0  0  0  0  0  0
    1.4160    0.1139   -0.4757 C   0  0  1  0  0  0  0  0  0  0  0  0
    2.6306   -0.7819   -0.3674 C   0  0  0  0  0  0  0  0  0  0  0  0
    3.1887   -1.0003   -1.6255 O   0  0  0  0  0  0  0  0  0  0  0  0
    0.8046    0.3684    0.7991 N   0  0  0  0  0  0  0  0  0  0  0  0
    1.5701    0.9914    1.8469 C   0  0  0  0  0  0  0  0  0  0  0  0
   -0.5362    0.0155    1.0356 C   0  0  0  0  0  0  0  0  0  0  0  0
   -0.9914    0.2502    2.2054 O   0  0  0  0  0  0  0  0  0  0  0  0
   -1.4484   -0.5942    0.0502 C   0  0  1  0  0  0  0  0  0  0  0  0
   -2.7040   -1.0719    0.8014 C   0  0  0  0  0  0  0  0  0  0  0  0
   -3.5916   -1.6686   -0.1775 N   0  0  0  0  0  0  0  0  0  0  0  0
   -1.9762    0.4293   -0.9427 C   0  0  0  0  0  0  0  0  0  0  0  0
   -2.6833    1.4355   -0.2641 O   0  0  0  0  0  0  0  0  0  0  0  0
    1.0603    2.0746   -1.3935 H   0  0  0  0  0  0  0  0  0  0  0  0
    2.4145    1.0583   -2.0925 H   0  0  0  0  0  0  0  0  0  0  0  0
    2.6068    1.8793   -0.4973 H   0  0  0  0  0  0  0  0  0  0  0  0
    0.7361   -0.3785   -1.1972 H   0  0  0  0  0  0  0  0  0  0  0  0
    2.3552   -1.7928    0.0275 H   0  0  0  0  0  0  0  0  0  0  0  0
    3.4106   -0.3813    0.2780 H   0  0  0  0  0  0  0  0  0  0  0  0
    4.0839   -0.5969   -1.7141 H   0  0  0  0  0  0  0  0  0  0  0  0
    2.0740    1.9236    1.5105 H   0  0  0  0  0  0  0  0  0  0  0  0
    0.9424    1.2882    2.7162 H   0  0  0  0  0  0  0  0  0  0  0  0
    2.3220    0.2667    2.2780 H   0  0  0  0  0  0  0  0  0  0  0  0
   -1.0475   -1.4711   -0.4600 H   0  0  0  0  0  0  0  0  0  0  0  0
   -2.3314   -1.8902    1.4703 H   0  0  0  0  0  0  0  0  0  0  0  0
   -3.1584   -0.2634    1.3725 H   0  0  0  0  0  0  0  0  0  0  0  0
   -3.0731   -2.0035   -1.0341 H   0  0  0  0  0  0  0  0  0  0  0  0
   -4.0437   -2.5345    0.2119 H   0  0  0  0  0  0  0  0  0  0  0  0
   -2.6977   -0.0769   -1.6153 H   0  0  0  0  0  0  0  0  0  0  0  0
   -1.2049    0.8961   -1.5615 H   0  0  0  0  0  0  0  0  0  0  0  0
   -2.0122    2.1298   -0.0292 H   0  0  0  0  0  0  0  0  0  0  0  0
  1  2  1  0
  2  3  1  0
  3  4  1  0
  2  5  1  0
  5  6  1  0
  5  7  1  0
  7  8  2  0
  7  9  1  0
  9 10  1  0
 10 11  1  0
  9 12  1  0
 12 13  1  0
  1 14  1  0
  1 15  1  0
  1 16  1  0
  2 17  1  6
  3 18  1  0
  3 19  1  0
  4 20  1  0
  6 21  1  0
  6 22  1  0
  6 23  1  0
  9 24  1  6
 10 25  1  0
 10 26  1  0
 11 27  1  0
 11 28  1  0
 12 29  1  0
 12 30  1  0
 13 31  1  0
M  END
$$$$

     RDKit          3D

 31 30  0  0  0  0  0  0  0  0999 V2000
   -1.3022    1.6660   -1.2364 C   0  0  0  0  0  0  0  0  0  0  0  0
   -1.7789    0.7171   -0.2021 C   0  0  1  0  0  0  0  0  0  0  0  0
   -2.3624   -0.5111   -0.8990 C   0  0  0  0  0  0  0  0  0  0  0  0
   -3.0633   -1.3164    0.0009 O   0  0  0  0  0  0  0  0  0  0  0  0
   -0.8888    0.3650    0.8417 N   0  0  0  0  0  0  0  0  0  0  0  0
   -1.3755    0.6717    2.2157 C   0  0  0  0  0  0  0  0  0  0  0  0
    0.3834   -0.2281    0.8000 C   0  0  0  0  0  0  0  0  0  0  0  0
    0.9620   -0.4979    1.9376 O   0  0  0  0  0  0  0  0  0  0  0  0
    1.2043   -0.6044   -0.3493 C   0  0  1  0  0  0  0  0  0  0  0  0
    2.0530    0.5620   -0.7726 C   0  0  0  0  0  0  0  0  0  0  0  0
    2.9407    1.0031    0.2930 N   0  0  0  0  0  0  0  0  0  0  0  0
    2.1124   -1.7921   -0.0360 C   0  0  0  0  0  0  0  0  0  0  0  0
    1.3231   -2.8628    0.3144 O   0  0  0  0  0  0  0  0  0  0  0  0
   -0.7178    2.5103   -0.8452 H   0  0  0  0  0  0  0  0  0  0  0  0
   -2.2030    2.1136   -1.7360 H   0  0  0  0  0  0  0  0  0  0  0  0
   -0.7637    1.1334   -2.0621 H   0  0  0  0  0  0  0  0  0  0  0  0
   -2.6898    1.2103    0.2710 H   0  0  0  0  0  0  0  0  0  0  0  0
   -3.1611   -0.1641   -1.6290 H   0  0  0  0  0  0  0  0  0  0  0  0
   -1.6463   -1.0527   -1.5175 H   0  0  0  0  0  0  0  0  0  0  0  0
   -3.8982   -0.8910    0.2738 H   0  0  0  0  0  0  0  0  0  0  0  0
   -2.1821    1.4056    2.2129 H   0  0  0  0  0  0  0  0  0  0  0  0
   -1.6211   -0.2531    2.7363 H   0  0  0  0  0  0  0  0  0  0  0  0
   -0.4990    1.1844    2.7098 H   0  0  0  0  0  0  0  0  0  0  0  0
    0.6259   -0.9126   -1.2235 H   0  0  0  0  0  0  0  0  0  0  0  0
    1.4876    1.3990   -1.1808 H   0  0  0  0  0  0  0  0  0  0  0  0
    2.7534    0.2410   -1.6002 H   0  0  0  0  0  0  0  0  0  0  0  0
    3.6935    0.3413    0.5012 H   0  0  0  0  0  0  0  0  0  0  0  0
    3.3709    1.8890   -0.0253 H   0  0  0  0  0  0  0  0  0  0  0  0
    2.6467   -2.0254   -0.9768 H   0  0  0  0  0  0  0  0  0  0  0  0
    2.8378   -1.5603    0.7501 H   0  0  0  0  0  0  0  0  0  0  0  0
    1.7584   -3.7409    0.1820 H   0  0  0  0  0  0  0  0  0  0  0  0
  1  2  1  0
  2  3  1  0
  3  4  1  0
  2  5  1  0
  5  6  1  0
  5  7  1  0
  7  8  2  0
  7  9  1  0
  9 10  1  0
 10 11  1  0
  9 12  1  0
 12 13  1  0
  1 14  1  0
  1 15  1  0
  1 16  1  0
  2 17  1  1
  3 18  1  0
  3 19  1  0
  4 20  1  0
  6 21  1  0
  6 22  1  0
  6 23  1  0
  9 24  1  6
 10 25  1  0
 10 26  1  0
 11 27  1  0
 11 28  1  0
 12 29  1  0
 12 30  1  0
 13 31  1  0
M  END
$$$$

     RDKit          3D

 31 30  0  0  0  0  0  0  0  0999 V2000
   -3.0571    0.2874   -0.4828 C   0  0  0  0  0  0  0  0  0  0  0  0
   -1.8932    0.5666    0.4467 C   0  0  1  0  0  0  0  0  0  0  0  0
   -2.3216    0.1218    1.8258 C   0  0  0  0  0  0  0  0  0  0  0  0
   -3.4440    0.8923    2.1651 O   0  0  0  0  0  0  0  0  0  0  0  0
   -0.7301   -0.1636   -0.0204 N   0  0  0  0  0  0  0  0  0  0  0  0
   -0.8658   -1.6001   -0.0791 C   0  0  0  0  0  0  0  0  0  0  0  0
    0.4626    0.4657   -0.4179 C   0  0  0  0  0  0  0  0  0  0  0  0
    0.4465    1.7465   -0.3649 O   0  0  0  0  0  0  0  0  0  0  0  0
    1.7024   -0.1545   -0.8763 C   0  0  1  0  0  0  0  0  0  0  0  0
    2.6538    0.8821   -1.4944 C   0  0  0  0  0  0  0  0  0  0  0  0
    2.9946    1.8924   -0.5324 N   0  0  0  0  0  0  0  0  0  0  0  0
    2.5181   -0.8487    0.1701 C   0  0  0  0  0  0  0  0  0  0  0  0
    1.9085   -1.8837    0.8237 O   0  0  0  0  0  0  0  0  0  0  0  0
   -3.7336   -0.5015   -0.0398 H   0  0  0  0  0  0  0  0  0  0  0  0
   -3.6782    1.2063   -0.5126 H   0  0  0  0  0  0  0  0  0  0  0  0
   -2.7238    0.0128   -1.5031 H   0  0  0  0  0  0  0  0  0  0  0  0
   -1.6785    1.6439    0.4323 H   0  0  0  0  0  0  0  0  0  0  0  0
   -1.5314    0.1909    2.5710 H   0  0  0  0  0  0  0  0  0  0  0  0
   -2.6730   -0.9298    1.8081 H   0  0  0  0  0  0  0  0  0  0  0  0
   -3.6303    1.5959    1.5133 H   0  0  0  0  0  0  0  0  0  0  0  0
   -0.2228   -2.0822   -0.8402 H   0  0  0  0  0  0  0  0  0  0  0  0
   -1.9140   -1.8699   -0.4193 H   0  0  0  0  0  0  0  0  0  0  0  0
   -0.7983   -2.0185    0.9318 H   0  0  0  0  0  0  0  0  0  0  0  0
    1.5079   -0.8765   -1.7119 H   0  0  0  0  0  0  0  0  0  0  0  0
    3.5987    0.3195   -1.7494 H   0  0  0  0  0  0  0  0  0  0  0  0
    2.2025    1.3442   -2.3963 H   0  0  0  0  0  0  0  0  0  0  0  0
    2.6183    1.7324    0.4095 H   0  0  0  0  0  0  0  0  0  0  0  0
    4.0016    2.0893   -0.4524 H   0  0  0  0  0  0  0  0  0  0  0  0
    2.9328   -0.1667    0.9515 H   0  0  0  0  0  0  0  0  0  0  0  0
    3.4502   -1.2283   -0.3525 H   0  0  0  0  0  0  0  0  0  0  0  0
    1.8971   -2.6660    0.1965 H   0  0  0  0  0  0  0  0  0  0  0  0
  1  2  1  0
  2  3  1  0
  3  4  1  0
  2  5  1  0
  5  6  1  0
  5  7  1  0
  7  8  2  0
  7  9  1  0
  9 10  1  0
 10 11  1  0
  9 12  1  0
 12 13  1  0
  1 14  1  0
  1 15  1  0
  1 16  1  0
  2 17  1  1
  3 18  1  0
  3 19  1  0
  4 20  1  0
  6 21  1  0
  6 22  1  0
  6 23  1  0
  9 24  1  6
 10 25  1  0
 10 26  1  0
 11 27  1  0
 11 28  1  0
 12 29  1  0
 12 30  1  0
 13 31  1  0
M  END
$$$$

     RDKit          3D

 31 30  0  0  0  0  0  0  0  0999 V2000
   -2.5997    0.3351   -1.2720 C   0  0  0  0  0  0  0  0  0  0  0  0
   -2.0895    0.5539    0.1147 C   0  0  1  0  0  0  0  0  0  0  0  0
   -3.0497    0.0824    1.1742 C   0  0  0  0  0  0  0  0  0  0  0  0
   -4.2677    0.7558    0.9996 O   0  0  0  0  0  0  0  0  0  0  0  0
   -0.7937   -0.1105    0.2465 N   0  0  0  0  0  0  0  0  0  0  0  0
   -0.7734   -1.5317    0.0758 C   0  0  0  0  0  0  0  0  0  0  0  0
    0.3764    0.6047    0.5340 C   0  0  0  0  0  0  0  0  0  0  0  0
    0.2608    1.8573    0.6944 O   0  0  0  0  0  0  0  0  0  0  0  0
    1.7080   -0.0153    0.6546 C   0  0  1  0  0  0  0  0  0  0  0  0
    2.2843   -0.5287   -0.6193 C   0  0  0  0  0  0  0  0  0  0  0  0
    3.5994   -1.1168   -0.3641 N   0  0  0  0  0  0  0  0  0  0  0  0
    2.6959    0.9787    1.2739 C   0  0  0  0  0  0  0  0  0  0  0  0
    2.7405    2.0673    0.4267 O   0  0  0  0  0  0  0  0  0  0  0  0
   -3.3473    1.1183   -1.5282 H   0  0  0  0  0  0  0  0  0  0  0  0
   -1.7645    0.4363   -1.9916 H   0  0  0  0  0  0  0  0  0  0  0  0
   -3.0333   -0.6777   -1.3660 H   0  0  0  0  0  0  0  0  0  0  0  0
   -1.9178    1.6401    0.2757 H   0  0  0  0  0  0  0  0  0  0  0  0
   -2.7074    0.3341    2.1957 H   0  0  0  0  0  0  0  0  0  0  0  0
   -3.2565   -0.9853    1.0968 H   0  0  0  0  0  0  0  0  0  0  0  0
   -4.5394    0.6470    0.0607 H   0  0  0  0  0  0  0  0  0  0  0  0
   -0.6905   -1.8423   -0.9956 H   0  0  0  0  0  0  0  0  0  0  0  0
   -1.6450   -2.0539    0.5328 H   0  0  0  0  0  0  0  0  0  0  0  0
    0.1084   -1.9400    0.6008 H   0  0  0  0  0  0  0  0  0  0  0  0
    1.6463   -0.8591    1.3813 H   0  0  0  0  0  0  0  0  0  0  0  0
    1.6061   -1.2512   -1.1011 H   0  0  0  0  0  0  0  0  0  0  0  0
    2.4252    0.2893   -1.3813 H   0  0  0  0  0  0  0  0  0  0  0  0
    4.1520   -1.2189   -1.2317 H   0  0  0  0  0  0  0  0  0  0  0  0
    3.4445   -2.0120    0.1503 H   0  0  0  0  0  0  0  0  0  0  0  0
    3.6636    0.4640    1.3523 H   0  0  0  0  0  0  0  0  0  0  0  0
    2.3772    1.2336    2.3018 H   0  0  0  0  0  0  0  0  0  0  0  0
    3.3867    2.7459    0.7912 H   0  0  0  0  0  0  0  0  0  0  0  0
  1  2  1  0
  2  3  1  0
  3  4  1  0
  2  5  1  0
  5  6  1  0
  5  7  1  0
  7  8  2  0
  7  9  1  0
  9 10  1  0
 10 11  1  0
  9 12  1  0
 12 13  1  0
  1 14  1  0
  1 15  1  0
  1 16  1  0
  2 17  1  1
  3 18  1  0
  3 19  1  0
  4 20  1  0
  6 21  1  0
  6 22  1  0
  6 23  1  0
  9 24  1  1
 10 25  1  0
 10 26  1  0
 11 27  1  0
 11 28  1  0
 12 29  1  0
 12 30  1  0
 13 31  1  0
M  END
$$$$

     RDKit          3D

 31 30  0  0  0  0  0  0  0  0999 V2000
    2.4107   -1.2287    0.5346 C   0  0  0  0  0  0  0  0  0  0  0  0
    1.4431   -0.0631    0.3184 C   0  0  1  0  0  0  0  0  0  0  0  0
    2.2746    1.2040    0.1560 C   0  0  0  0  0  0  0  0  0  0  0  0
    3.0593    1.4355    1.2768 O   0  0  0  0  0  0  0  0  0  0  0  0
    0.6246   -0.3021   -0.8434 N   0  0  0  0  0  0  0  0  0  0  0  0
    1.3399   -0.4257   -2.1217 C   0  0  0  0  0  0  0  0  0  0  0  0
   -0.7842   -0.4244   -0.8579 C   0  0  0  0  0  0  0  0  0  0  0  0
   -1.3289   -0.6745   -2.0003 O   0  0  0  0  0  0  0  0  0  0  0  0
   -1.6847   -0.2922    0.2932 C   0  0  1  0  0  0  0  0  0  0  0  0
   -2.0746    1.1450    0.5195 C   0  0  0  0  0  0  0  0  0  0  0  0
   -0.9649    2.0004    0.7736 N   0  0  0  0  0  0  0  0  0  0  0  0
   -2.9705   -1.0755    0.1014 C   0  0  0  0  0  0  0  0  0  0  0  0
   -2.7490   -2.4231   -0.0690 O   0  0  0  0  0  0  0  0  0  0  0  0
    2.4745   -1.7943   -0.4405 H   0  0  0  0  0  0  0  0  0  0  0  0
    3.4008   -0.8321    0.8402 H   0  0  0  0  0  0  0  0  0  0  0  0
    2.0274   -1.8942    1.3189 H   0  0  0  0  0  0  0  0  0  0  0  0
    0.8559    0.0212    1.2379 H   0  0  0  0  0  0  0  0  0  0  0  0
    1.6690    2.0810   -0.0905 H   0  0  0  0  0  0  0  0  0  0  0  0
    3.0118    0.9797   -0.6735 H   0  0  0  0  0  0  0  0  0  0  0  0
    2.5004    1.2729    2.0849 H   0  0  0  0  0  0  0  0  0  0  0  0
    2.4305   -0.4707   -1.9896 H   0  0  0  0  0  0  0  0  0  0  0  0
    0.9642   -1.3108   -2.6805 H   0  0  0  0  0  0  0  0  0  0  0  0
    1.1211    0.5084   -2.6924 H   0  0  0  0  0  0  0  0  0  0  0  0
   -1.2052   -0.7149    1.2025 H   0  0  0  0  0  0  0  0  0  0  0  0
   -2.7655    1.2403    1.4079 H   0  0  0  0  0  0  0  0  0  0  0  0
   -2.6931    1.5195   -0.3385 H   0  0  0  0  0  0  0  0  0  0  0  0
   -0.6514    2.0334    1.7552 H   0  0  0  0  0  0  0  0  0  0  0  0
   -1.0815    2.9724    0.4227 H   0  0  0  0  0  0  0  0  0  0  0  0
   -3.5861   -0.9278    1.0074 H   0  0  0  0  0  0  0  0  0  0  0  0
   -3.5424   -0.6502   -0.7693 H   0  0  0  0  0  0  0  0  0  0  0  0
   -3.5258   -2.9094    0.3160 H   0  0  0  0  0  0  0  0  0  0  0  0
  1  2  1  0
  2  3  1  0
  3  4  1  0
  2  5  1  0
  5  6  1  0
  5  7  1  0
  7  8  2  0
  7  9  1  0
  9 10  1  0
 10 11  1  0
  9 12  1  0
 12 13  1  0
  1 14  1  0
  1 15  1  0
  1 16  1  0
  2 17  1  1
  3 18  1  0
  3 19  1  0
  4 20  1  0
  6 21  1  0
  6 22  1  0
  6 23  1  0
  9 24  1  1
 10 25  1  0
 10 26  1  0
 11 27  1  0
 11 28  1  0
 12 29  1  0
 12 30  1  0
 13 31  1  0
M  END
$$$$

     RDKit          3D

 31 30  0  0  0  0  0  0  0  0999 V2000
    2.3588   -0.1575   -1.5528 C   0  0  0  0  0  0  0  0  0  0  0  0
    2.1555   -0.4996   -0.1247 C   0  0  1  0  0  0  0  0  0  0  0  0
    2.8432    0.5061    0.7754 C   0  0  0  0  0  0  0  0  0  0  0  0
    2.2654    1.7519    0.7889 O   0  0  0  0  0  0  0  0  0  0  0  0
    0.7943   -0.7163    0.2696 N   0  0  0  0  0  0  0  0  0  0  0  0
    0.4843   -2.0022    0.8883 C   0  0  0  0  0  0  0  0  0  0  0  0
   -0.2326    0.2385    0.1121 C   0  0  0  0  0  0  0  0  0  0  0  0
    0.0397    1.3772   -0.4061 O   0  0  0  0  0  0  0  0  0  0  0  0
   -1.6306    0.0469    0.4946 C   0  0  1  0  0  0  0  0  0  0  0  0
   -2.3797    1.3816    0.5673 C   0  0  0  0  0  0  0  0  0  0  0  0
   -2.3755    2.0666   -0.6914 N   0  0  0  0  0  0  0  0  0  0  0  0
   -2.4366   -0.7751   -0.4979 C   0  0  0  0  0  0  0  0  0  0  0  0
   -1.9842   -2.0399   -0.7136 O   0  0  0  0  0  0  0  0  0  0  0  0
    3.4105   -0.4489   -1.8318 H   0  0  0  0  0  0  0  0  0  0  0  0
    1.6956   -0.6707   -2.2459 H   0  0  0  0  0  0  0  0  0  0  0  0
    2.3269    0.9527   -1.7397 H   0  0  0  0  0  0  0  0  0  0  0  0
    2.7233   -1.4614    0.0911 H   0  0  0  0  0  0  0  0  0  0  0  0
    3.9000    0.5966    0.3875 H   0  0  0  0  0  0  0  0  0  0  0  0
    2.8756    0.0492    1.7962 H   0  0  0  0  0  0  0  0  0  0  0  0
    2.9524    2.4678    0.8172 H   0  0  0  0  0  0  0  0  0  0  0  0
    0.4500   -2.8341    0.1596 H   0  0  0  0  0  0  0  0  0  0  0  0
    1.2968   -2.2908    1.6075 H   0  0  0  0  0  0  0  0  0  0  0  0
   -0.4236   -1.9453    1.5012 H   0  0  0  0  0  0  0  0  0  0  0  0
   -1.7285   -0.4175    1.4872 H   0  0  0  0  0  0  0  0  0  0  0  0
   -3.4380    1.1665    0.8306 H   0  0  0  0  0  0  0  0  0  0  0  0
   -1.9476    2.0004    1.3715 H   0  0  0  0  0  0  0  0  0  0  0  0
   -1.9655    3.0377   -0.5728 H   0  0  0  0  0  0  0  0  0  0  0  0
   -3.3397    2.2434   -1.0783 H   0  0  0  0  0  0  0  0  0  0  0  0
   -3.4946   -0.7336   -0.1302 H   0  0  0  0  0  0  0  0  0  0  0  0
   -2.4352   -0.2411   -1.4904 H   0  0  0  0  0  0  0  0  0  0  0  0
   -2.7602   -2.6488   -0.8702 H   0  0  0  0  0  0  0  0  0  0  0  0
  1  2  1  0
  2  3  1  0
  3  4  1  0
  2  5  1  0
  5  6  1  0
  5  7  1  0
  7  8  2  0
  7  9  1  0
  9 10  1  0
 10 11  1  0
  9 12  1  0
 12 13  1  0
  1 14  1  0
  1 15  1  0
  1 16  1  0
  2 17  1  6
  3 18  1  0
  3 19  1  0
  4 20  1  0
  6 21  1  0
  6 22  1  0
  6 23  1  0
  9 24  1  1
 10 25  1  0
 10 26  1  0
 11 27  1  0
 11 28  1  0
 12 29  1  0
 12 30  1  0
 13 31  1  0
M  END
$$$$
