
     RDKit          3D

 29 28  0  0  0  0  0  0  0  0999 V2000
   -3.6779    1.6684    0.2794 N   0  0  0  0  0  0  0  0  0  0  0  0
   -2.6179    0.7623   -0.2052 C   0  0  1  0  0  0  0  0  0  0  0  0
   -1.4610    0.8070    0.7867 C   0  0  0  0  0  0  0  0  0  0  0  0
   -0.3596   -0.0082    0.4460 N   0  0  0  0  0  0  0  0  0  0  0  0
    0.3814    0.4131   -0.7052 C   0  0  0  0  0  0  0  0  0  0  0  0
    1.5425   -0.5380   -0.9069 C   0  0  0  0  0  0  0  0  0  0  0  0
    2.3675   -0.4700    0.3605 C   0  0  2  0  0  0  0  0  0  0  0  0
    2.7890    0.8506    0.5328 O   0  0  0  0  0  0  0  0  0  0  0  0
    3.5869   -1.3591    0.1909 C   0  0  0  0  0  0  0  0  0  0  0  0
    4.2784   -0.8880   -0.9375 O   0  0  0  0  0  0  0  0  0  0  0  0
   -3.1511   -0.6137   -0.2771 C   0  0  0  0  0  0  0  0  0  0  0  0
   -2.4472   -1.5318   -0.7331 O   0  0  0  0  0  0  0  0  0  0  0  0
   -4.4411   -0.8660    0.1678 O   0  0  0  0  0  0  0  0  0  0  0  0
   -3.4012    2.6255   -0.0929 H   0  0  0  0  0  0  0  0  0  0  0  0
   -3.6564    1.7379    1.3302 H   0  0  0  0  0  0  0  0  0  0  0  0
   -2.3283    1.1208   -1.1983 H   0  0  0  0  0  0  0  0  0  0  0  0
   -1.1017    1.8674    0.8880 H   0  0  0  0  0  0  0  0  0  0  0  0
   -1.8153    0.5310    1.7995 H   0  0  0  0  0  0  0  0  0  0  0  0
   -0.5628   -1.0159    0.4579 H   0  0  0  0  0  0  0  0  0  0  0  0
   -0.2113    0.4107   -1.6467 H   0  0  0  0  0  0  0  0  0  0  0  0
    0.7653    1.4464   -0.5550 H   0  0  0  0  0  0  0  0  0  0  0  0
    2.1381   -0.2915   -1.7867 H   0  0  0  0  0  0  0  0  0  0  0  0
    1.0727   -1.5539   -1.0096 H   0  0  0  0  0  0  0  0  0  0  0  0
    1.7375   -0.8139    1.1933 H   0  0  0  0  0  0  0  0  0  0  0  0
    2.9558    1.3063   -0.3312 H   0  0  0  0  0  0  0  0  0  0  0  0
    3.2382   -2.3823   -0.0756 H   0  0  0  0  0  0  0  0  0  0  0  0
    4.2260   -1.4016    1.0801 H   0  0  0  0  0  0  0  0  0  0  0  0
    4.7896   -0.0488   -0.7131 H   0  0  0  0  0  0  0  0  0  0  0  0
   -4.6360   -1.7648    0.6366 H   0  0  0  0  0  0  0  0  0  0  0  0
  1  2  1  0
  2  3  1  0
  3  4  1  0
  4  5  1  0
  5  6  1  0
  6  7  1  0
  7  8  1  0
  7  9  1  0
  9 10  1  0
  2 11  1  0
 11 12  2  0
 11 13  1  0
  1 14  1  0
  1 15  1  0
  2 16  1  6
  3 17  1  0
  3 18  1  0
  4 19  1  0
  5 20  1  0
  5 21  1  0
  6 22  1  0
  6 23  1  0
  7 24  1  1
  8 25  1  0
  9 26  1  0
  9 27  1  0
 10 28  1  0
 13 29  1  0
M  END
$$$$

     RDKit          3D

 29 28  0  0  0  0  0  0  0  0999 V2000
   -2.2162   -0.9322    1.6762 N   0  0  0  0  0  0  0  0  0  0  0  0
   -2.2756   -0.0211    0.5543 C   0  0  1  0  0  0  0  0  0  0  0  0
   -1.8209   -0.7416   -0.6830 C   0  0  0  0  0  0  0  0  0  0  0  0
   -0.5022   -1.2403   -0.6228 N   0  0  0  0  0  0  0  0  0  0  0  0
    0.4581   -0.1758   -0.6168 C   0  0  0  0  0  0  0  0  0  0  0  0
    1.8796   -0.6822   -0.5666 C   0  0  0  0  0  0  0  0  0  0  0  0
    2.8149    0.4965   -0.5868 C   0  0  2  0  0  0  0  0  0  0  0  0
    4.1633    0.0371   -0.5483 O   0  0  0  0  0  0  0  0  0  0  0  0
    2.5856    1.3860    0.5903 C   0  0  0  0  0  0  0  0  0  0  0  0
    2.7783    0.6856    1.7760 O   0  0  0  0  0  0  0  0  0  0  0  0
   -3.6556    0.5049    0.4132 C   0  0  0  0  0  0  0  0  0  0  0  0
   -4.5344    0.1083    1.2090 O   0  0  0  0  0  0  0  0  0  0  0  0
   -3.9906    1.4143   -0.5668 O   0  0  0  0  0  0  0  0  0  0  0  0
   -1.6158   -1.7289    1.4238 H   0  0  0  0  0  0  0  0  0  0  0  0
   -3.1786   -1.3282    1.8469 H   0  0  0  0  0  0  0  0  0  0  0  0
   -1.6066    0.8479    0.7477 H   0  0  0  0  0  0  0  0  0  0  0  0
   -1.9271   -0.0545   -1.5712 H   0  0  0  0  0  0  0  0  0  0  0  0
   -2.4995   -1.6160   -0.9100 H   0  0  0  0  0  0  0  0  0  0  0  0
   -0.3015   -2.0613   -0.0664 H   0  0  0  0  0  0  0  0  0  0  0  0
    0.3539    0.3732   -1.5890 H   0  0  0  0  0  0  0  0  0  0  0  0
    0.2908    0.5600    0.1794 H   0  0  0  0  0  0  0  0  0  0  0  0
    2.0209   -1.2753    0.3528 H   0  0  0  0  0  0  0  0  0  0  0  0
    2.0462   -1.2893   -1.4831 H   0  0  0  0  0  0  0  0  0  0  0  0
    2.7521    1.0725   -1.5313 H   0  0  0  0  0  0  0  0  0  0  0  0
    4.1355   -0.9277   -0.7303 H   0  0  0  0  0  0  0  0  0  0  0  0
    3.4113    2.1704    0.5749 H   0  0  0  0  0  0  0  0  0  0  0  0
    1.6398    1.9152    0.5803 H   0  0  0  0  0  0  0  0  0  0  0  0
    3.7315    0.7389    2.0793 H   0  0  0  0  0  0  0  0  0  0  0  0
   -4.9371    1.7637   -0.6957 H   0  0  0  0  0  0  0  0  0  0  0  0
  1  2  1  0
  2  3  1  0
  3  4  1  0
  4  5  1  0
  5  6  1  0
  6  7  1  0
  7  8  1  0
  7  9  1  0
  9 10  1  0
  2 11  1  0
 11 12  2  0
 11 13  1  0
  1 14  1  0
  1 15  1  0
  2 16  1  1
  3 17  1  0
  3 18  1  0
  4 19  1  0
  5 20  1  0
  5 21  1  0
  6 22  1  0
  6 23  1  0
  7 24  1  6
  8 25  1  0
  9 26  1  0
  9 27  1  0
 10 28  1  0
 13 29  1  0
M  END
$$$$

     RDKit          3D

 29 28  0  0  0  0  0  0  0  0999 V2000
    3.0981    0.8605    1.4431 N   0  0  0  0  0  0  0  0  0  0  0  0
    3.0421   -0.0558    0.3292 C   0  0  1  0  0  0  0  0  0  0  0  0
    1.6437   -0.5884    0.1002 C   0  0  0  0  0  0  0  0  0  0  0  0
    0.6992    0.4576   -0.1832 N   0  0  0  0  0  0  0  0  0  0  0  0
   -0.6321    0.0231   -0.4082 C   0  0  0  0  0  0  0  0  0  0  0  0
   -1.3261   -0.5359    0.7998 C   0  0  0  0  0  0  0  0  0  0  0  0
   -2.7309   -0.9611    0.4343 C   0  0  2  0  0  0  0  0  0  0  0  0
   -2.6884   -1.9301   -0.5503 O   0  0  0  0  0  0  0  0  0  0  0  0
   -3.6061    0.2166    0.0272 C   0  0  0  0  0  0  0  0  0  0  0  0
   -4.8843   -0.2758   -0.1879 O   0  0  0  0  0  0  0  0  0  0  0  0
    3.5863    0.5977   -0.8843 C   0  0  0  0  0  0  0  0  0  0  0  0
    4.0240    1.7715   -0.9272 O   0  0  0  0  0  0  0  0  0  0  0  0
    3.6196   -0.1390   -2.0797 O   0  0  0  0  0  0  0  0  0  0  0  0
    3.6239    0.4891    2.2592 H   0  0  0  0  0  0  0  0  0  0  0  0
    3.3211    1.8300    1.1987 H   0  0  0  0  0  0  0  0  0  0  0  0
    3.7068   -0.9089    0.5698 H   0  0  0  0  0  0  0  0  0  0  0  0
    1.3308   -1.0702    1.0507 H   0  0  0  0  0  0  0  0  0  0  0  0
    1.7122   -1.3191   -0.7217 H   0  0  0  0  0  0  0  0  0  0  0  0
    0.7530    1.2638    0.4419 H   0  0  0  0  0  0  0  0  0  0  0  0
   -1.2164    0.9478   -0.6960 H   0  0  0  0  0  0  0  0  0  0  0  0
   -0.7187   -0.6683   -1.2593 H   0  0  0  0  0  0  0  0  0  0  0  0
   -0.8276   -1.4226    1.2302 H   0  0  0  0  0  0  0  0  0  0  0  0
   -1.3901    0.2057    1.6215 H   0  0  0  0  0  0  0  0  0  0  0  0
   -3.1810   -1.3851    1.3692 H   0  0  0  0  0  0  0  0  0  0  0  0
   -3.0435   -1.5799   -1.4165 H   0  0  0  0  0  0  0  0  0  0  0  0
   -3.2119    0.6603   -0.9114 H   0  0  0  0  0  0  0  0  0  0  0  0
   -3.6422    0.9330    0.8487 H   0  0  0  0  0  0  0  0  0  0  0  0
   -5.4482    0.3087   -0.7493 H   0  0  0  0  0  0  0  0  0  0  0  0
    4.3869   -0.0027   -2.7489 H   0  0  0  0  0  0  0  0  0  0  0  0
  1  2  1  0
  2  3  1  0
  3  4  1  0
  4  5  1  0
  5  6  1  0
  6  7  1  0
  7  8  1  0
  7  9  1  0
  9 10  1  0
  2 11  1  0
 11 12  2  0
 11 13  1  0
  1 14  1  0
  1 15  1  0
  2 16  1  1
  3 17  1  0
  3 18  1  0
  4 19  1  0
  5 20  1  0
  5 21  1  0
  6 22  1  0
  6 23  1  0
  7 24  1  1
  8 25  1  0
  9 26  1  0
  9 27  1  0
 10 28  1  0
 13 29  1  0
M  END
$$$$

     RDKit          3D

 29 28  0  0  0  0  0  0  0  0999 V2000
   -3.6233    0.0037   -1.9365 N   0  0  0  0  0  0  0  0  0  0  0  0
   -2.7841   -0.4797   -0.8477 C   0  0  1  0  0  0  0  0  0  0  0  0
   -1.4913    0.3119   -0.9180 C   0  0  0  0  0  0  0  0  0  0  0  0
   -0.5441   -0.0606    0.0732 N   0  0  0  0  0  0  0  0  0  0  0  0
    0.4817    0.9178    0.1647 C   0  0  0  0  0  0  0  0  0  0  0  0
    1.5970    0.6062    1.1176 C   0  0  0  0  0  0  0  0  0  0  0  0
    2.4121   -0.6097    0.7486 C   0  0  2  0  0  0  0  0  0  0  0  0
    3.3854   -0.7324    1.7683 O   0  0  0  0  0  0  0  0  0  0  0  0
    3.2573   -0.2897   -0.5034 C   0  0  0  0  0  0  0  0  0  0  0  0
    4.1792   -1.2922   -0.7593 O   0  0  0  0  0  0  0  0  0  0  0  0
   -3.5253   -0.1178    0.4058 C   0  0  0  0  0  0  0  0  0  0  0  0
   -4.6500    0.4482    0.3684 O   0  0  0  0  0  0  0  0  0  0  0  0
   -3.0325   -0.3748    1.6737 O   0  0  0  0  0  0  0  0  0  0  0  0
   -3.1181   -0.2405   -2.8116 H   0  0  0  0  0  0  0  0  0  0  0  0
   -3.6408    1.0508   -1.8472 H   0  0  0  0  0  0  0  0  0  0  0  0
   -2.6475   -1.5601   -0.9799 H   0  0  0  0  0  0  0  0  0  0  0  0
   -1.0535    0.0204   -1.9219 H   0  0  0  0  0  0  0  0  0  0  0  0
   -1.7259    1.3702   -1.0126 H   0  0  0  0  0  0  0  0  0  0  0  0
   -0.8515   -0.5337    0.9007 H   0  0  0  0  0  0  0  0  0  0  0  0
    0.9284    1.1016   -0.8307 H   0  0  0  0  0  0  0  0  0  0  0  0
    0.0503    1.9026    0.5019 H   0  0  0  0  0  0  0  0  0  0  0  0
    2.2870    1.4722    1.1498 H   0  0  0  0  0  0  0  0  0  0  0  0
    1.2232    0.4637    2.1646 H   0  0  0  0  0  0  0  0  0  0  0  0
    1.8799   -1.5326    0.6520 H   0  0  0  0  0  0  0  0  0  0  0  0
    2.9126   -0.7219    2.6406 H   0  0  0  0  0  0  0  0  0  0  0  0
    3.7849    0.6610   -0.2296 H   0  0  0  0  0  0  0  0  0  0  0  0
    2.5889   -0.0739   -1.3448 H   0  0  0  0  0  0  0  0  0  0  0  0
    5.0999   -0.9020   -0.8556 H   0  0  0  0  0  0  0  0  0  0  0  0
   -3.3800    0.1550    2.4688 H   0  0  0  0  0  0  0  0  0  0  0  0
  1  2  1  0
  2  3  1  0
  3  4  1  0
  4  5  1  0
  5  6  1  0
  6  7  1  0
  7  8  1  0
  7  9  1  0
  9 10  1  0
  2 11  1  0
 11 12  2  0
 11 13  1  0
  1 14  1  0
  1 15  1  0
  2 16  1  6
  3 17  1  0
  3 18  1  0
  4 19  1  0
  5 20  1  0
  5 21  1  0
  6 22  1  0
  6 23  1  0
  7 24  1  6
  8 25  1  0
  9 26  1  0
  9 27  1  0
 10 28  1  0
 13 29  1  0
M  END
$$$$

     RDKit          3D

 29 28  0  0  0  0  0  0  0  0999 V2000
    2.5857    1.9914   -0.6647 N   0  0  0  0  0  0  0  0  0  0  0  0
    1.9937    0.9358    0.1382 C   0  0  1  0  0  0  0  0  0  0  0  0
    1.6075   -0.1554   -0.8617 C   0  0  0  0  0  0  0  0  0  0  0  0
    1.0109   -1.2833   -0.2684 N   0  0  0  0  0  0  0  0  0  0  0  0
   -0.2968   -1.1043    0.2731 C   0  0  0  0  0  0  0  0  0  0  0  0
   -1.3340   -0.8569   -0.8050 C   0  0  0  0  0  0  0  0  0  0  0  0
   -2.7111   -0.6823   -0.2345 C   0  0  2  0  0  0  0  0  0  0  0  0
   -3.6593   -0.4527   -1.2458 O   0  0  0  0  0  0  0  0  0  0  0  0
   -2.8267    0.4540    0.7500 C   0  0  0  0  0  0  0  0  0  0  0  0
   -2.5668    1.6748    0.1023 O   0  0  0  0  0  0  0  0  0  0  0  0
    3.0219    0.3531    1.0702 C   0  0  0  0  0  0  0  0  0  0  0  0
    4.2127    0.7514    0.9969 O   0  0  0  0  0  0  0  0  0  0  0  0
    2.7014   -0.6103    2.0075 O   0  0  0  0  0  0  0  0  0  0  0  0
    3.5886    1.8005   -0.8873 H   0  0  0  0  0  0  0  0  0  0  0  0
    2.4497    2.9389   -0.2456 H   0  0  0  0  0  0  0  0  0  0  0  0
    1.1451    1.2651    0.7584 H   0  0  0  0  0  0  0  0  0  0  0  0
    0.9798    0.3272   -1.6676 H   0  0  0  0  0  0  0  0  0  0  0  0
    2.5639   -0.4752   -1.3549 H   0  0  0  0  0  0  0  0  0  0  0  0
    1.1759   -2.1755   -0.7441 H   0  0  0  0  0  0  0  0  0  0  0  0
   -0.3203   -0.3286    1.0425 H   0  0  0  0  0  0  0  0  0  0  0  0
   -0.5435   -2.0822    0.7866 H   0  0  0  0  0  0  0  0  0  0  0  0
   -1.0742    0.0476   -1.3701 H   0  0  0  0  0  0  0  0  0  0  0  0
   -1.3585   -1.7536   -1.4776 H   0  0  0  0  0  0  0  0  0  0  0  0
   -3.0325   -1.6055    0.3226 H   0  0  0  0  0  0  0  0  0  0  0  0
   -3.2312   -0.6983   -2.1144 H   0  0  0  0  0  0  0  0  0  0  0  0
   -2.1466    0.3552    1.6201 H   0  0  0  0  0  0  0  0  0  0  0  0
   -3.8998    0.5146    1.1026 H   0  0  0  0  0  0  0  0  0  0  0  0
   -3.3901    2.2263    0.0087 H   0  0  0  0  0  0  0  0  0  0  0  0
    3.3548   -1.3716    2.2431 H   0  0  0  0  0  0  0  0  0  0  0  0
  1  2  1  0
  2  3  1  0
  3  4  1  0
  4  5  1  0
  5  6  1  0
  6  7  1  0
  7  8  1  0
  7  9  1  0
  9 10  1  0
  2 11  1  0
 11 12  2  0
 11 13  1  0
  1 14  1  0
  1 15  1  0
  2 16  1  1
  3 17  1  0
  3 18  1  0
  4 19  1  0
  5 20  1  0
  5 21  1  0
  6 22  1  0
  6 23  1  0
  7 24  1  1
  8 25  1  0
  9 26  1  0
  9 27  1  0
 10 28  1  0
 13 29  1  0
M  END
$$$$

     RDKit          3D

 29 28  0  0  0  0  0  0  0  0999 V2000
    2.9193   -1.8918   -0.1499 N   0  0  0  0  0  0  0  0  0  0  0  0
    3.0272   -0.4576   -0.2615 C   0  0  1  0  0  0  0  0  0  0  0  0
    1.5988    0.0973   -0.3934 C   0  0  0  0  0  0  0  0  0  0  0  0
    0.8726   -0.2683    0.7667 N   0  0  0  0  0  0  0  0  0  0  0  0
   -0.4885    0.1314    0.8387 C   0  0  0  0  0  0  0  0  0  0  0  0
   -1.3936   -0.5486   -0.1330 C   0  0  0  0  0  0  0  0  0  0  0  0
   -2.8140   -0.0944   -0.0070 C   0  0  2  0  0  0  0  0  0  0  0  0
   -3.6161   -0.7678   -0.9431 O   0  0  0  0  0  0  0  0  0  0  0  0
   -3.0253    1.3721   -0.2195 C   0  0  0  0  0  0  0  0  0  0  0  0
   -4.4028    1.6128   -0.0078 O   0  0  0  0  0  0  0  0  0  0  0  0
    3.6541    0.0746    0.9745 C   0  0  0  0  0  0  0  0  0  0  0  0
    4.0037   -0.7132    1.8793 O   0  0  0  0  0  0  0  0  0  0  0  0
    3.8612    1.4534    1.1437 O   0  0  0  0  0  0  0  0  0  0  0  0
    2.2066   -2.2323   -0.8468 H   0  0  0  0  0  0  0  0  0  0  0  0
    3.8239   -2.3534   -0.3362 H   0  0  0  0  0  0  0  0  0  0  0  0
    3.6247   -0.1764   -1.1424 H   0  0  0  0  0  0  0  0  0  0  0  0
    1.6360    1.1495   -0.6386 H   0  0  0  0  0  0  0  0  0  0  0  0
    1.1674   -0.4660   -1.2608 H   0  0  0  0  0  0  0  0  0  0  0  0
    0.9472   -1.2837    0.9828 H   0  0  0  0  0  0  0  0  0  0  0  0
   -0.6431    1.2250    0.7534 H   0  0  0  0  0  0  0  0  0  0  0  0
   -0.8452   -0.1415    1.8707 H   0  0  0  0  0  0  0  0  0  0  0  0
   -1.0819   -0.3248   -1.1844 H   0  0  0  0  0  0  0  0  0  0  0  0
   -1.3815   -1.6494   -0.0145 H   0  0  0  0  0  0  0  0  0  0  0  0
   -3.2211   -0.4120    0.9880 H   0  0  0  0  0  0  0  0  0  0  0  0
   -4.1720   -0.1471   -1.4720 H   0  0  0  0  0  0  0  0  0  0  0  0
   -2.8263    1.6953   -1.2474 H   0  0  0  0  0  0  0  0  0  0  0  0
   -2.4862    2.0296    0.4540 H   0  0  0  0  0  0  0  0  0  0  0  0
   -4.7000    1.2275    0.8482 H   0  0  0  0  0  0  0  0  0  0  0  0
    3.7551    1.8599    2.0536 H   0  0  0  0  0  0  0  0  0  0  0  0
  1  2  1  0
  2  3  1  0
  3  4  1  0
  4  5  1  0
  5  6  1  0
  6  7  1  0
  7  8  1  0
  7  9  1  0
  9 10  1  0
  2 11  1  0
 11 12  2  0
 11 13  1  0
  1 14  1  0
  1 15  1  0
  2 16  1  6
  3 17  1  0
  3 18  1  0
  4 19  1  0
  5 20  1  0
  5 21  1  0
  6 22  1  0
  6 23  1  0
  7 24  1  1
  8 25  1  0
  9 26  1  0
  9 27  1  0
 10 28  1  0
 13 29  1  0
M  END
$$$$

     RDKit          3D

 29 28  0  0  0  0  0  0  0  0999 V2000
   -3.3671   -1.2262   -0.7954 N   0  0  0  0  0  0  0  0  0  0  0  0
   -3.2051   -0.2464    0.2293 C   0  0  1  0  0  0  0  0  0  0  0  0
   -1.8770   -0.4304    0.9681 C   0  0  0  0  0  0  0  0  0  0  0  0
   -0.8313   -0.3496    0.0468 N   0  0  0  0  0  0  0  0  0  0  0  0
    0.5087   -0.2423    0.4906 C   0  0  0  0  0  0  0  0  0  0  0  0
    1.3802   -0.4887   -0.7513 C   0  0  0  0  0  0  0  0  0  0  0  0
    2.8269   -0.3334   -0.4436 C   0  0  2  0  0  0  0  0  0  0  0  0
    3.1881   -1.2010    0.5730 O   0  0  0  0  0  0  0  0  0  0  0  0
    3.2703    1.0567   -0.1565 C   0  0  0  0  0  0  0  0  0  0  0  0
    4.6688    1.0394   -0.0337 O   0  0  0  0  0  0  0  0  0  0  0  0
   -3.1569    1.1155   -0.3499 C   0  0  0  0  0  0  0  0  0  0  0  0
   -3.0185    2.1108    0.4572 O   0  0  0  0  0  0  0  0  0  0  0  0
   -3.2499    1.3457   -1.6766 O   0  0  0  0  0  0  0  0  0  0  0  0
   -3.5034   -0.7651   -1.7374 H   0  0  0  0  0  0  0  0  0  0  0  0
   -2.4990   -1.8041   -0.8438 H   0  0  0  0  0  0  0  0  0  0  0  0
   -4.0261   -0.3207    1.0058 H   0  0  0  0  0  0  0  0  0  0  0  0
   -1.8222    0.2319    1.8262 H   0  0  0  0  0  0  0  0  0  0  0  0
   -1.9145   -1.4895    1.3769 H   0  0  0  0  0  0  0  0  0  0  0  0
   -0.9831   -0.3938   -0.9462 H   0  0  0  0  0  0  0  0  0  0  0  0
    0.6867    0.8386    0.7647 H   0  0  0  0  0  0  0  0  0  0  0  0
    0.8175   -0.8960    1.3220 H   0  0  0  0  0  0  0  0  0  0  0  0
    1.1811   -1.5441   -1.0343 H   0  0  0  0  0  0  0  0  0  0  0  0
    1.0038    0.1613   -1.5659 H   0  0  0  0  0  0  0  0  0  0  0  0
    3.3933   -0.6940   -1.3721 H   0  0  0  0  0  0  0  0  0  0  0  0
    2.7347   -2.0604    0.4080 H   0  0  0  0  0  0  0  0  0  0  0  0
    2.7968    1.4976    0.7417 H   0  0  0  0  0  0  0  0  0  0  0  0
    3.0329    1.7413   -1.0207 H   0  0  0  0  0  0  0  0  0  0  0  0
    4.8682    1.1661    0.9253 H   0  0  0  0  0  0  0  0  0  0  0  0
   -2.9042    2.1809   -2.1558 H   0  0  0  0  0  0  0  0  0  0  0  0
  1  2  1  0
  2  3  1  0
  3  4  1  0
  4  5  1  0
  5  6  1  0
  6  7  1  0
  7  8  1  0
  7  9  1  0
  9 10  1  0
  2 11  1  0
 11 12  2  0
 11 13  1  0
  1 14  1  0
  1 15  1  0
  2 16  1  1
  3 17  1  0
  3 18  1  0
  4 19  1  0
  5 20  1  0
  5 21  1  0
  6 22  1  0
  6 23  1  0
  7 24  1  6
  8 25  1  0
  9 26  1  0
  9 27  1  0
 10 28  1  0
 13 29  1  0
M  END
$$$$

     RDKit          3D

 29 28  0  0  0  0  0  0  0  0999 V2000
   -3.6836    1.8123   -0.7416 N   0  0  0  0  0  0  0  0  0  0  0  0
   -3.0541    0.4850   -0.7512 C   0  0  1  0  0  0  0  0  0  0  0  0
   -1.6145    0.7115   -0.4054 C   0  0  0  0  0  0  0  0  0  0  0  0
   -0.8022   -0.4835   -0.3640 N   0  0  0  0  0  0  0  0  0  0  0  0
    0.5544   -0.0013   -0.0349 C   0  0  0  0  0  0  0  0  0  0  0  0
    1.5118   -1.1576    0.0396 C   0  0  0  0  0  0  0  0  0  0  0  0
    2.9135   -0.7610    0.3686 C   0  0  2  0  0  0  0  0  0  0  0  0
    3.0260   -0.1185    1.5929 O   0  0  0  0  0  0  0  0  0  0  0  0
    3.5622    0.1030   -0.6828 C   0  0  0  0  0  0  0  0  0  0  0  0
    4.9010    0.2638   -0.3233 O   0  0  0  0  0  0  0  0  0  0  0  0
   -3.6947   -0.3104    0.3154 C   0  0  0  0  0  0  0  0  0  0  0  0
   -4.5417    0.2080    1.0684 O   0  0  0  0  0  0  0  0  0  0  0  0
   -3.3619   -1.6290    0.4842 O   0  0  0  0  0  0  0  0  0  0  0  0
   -3.5397    2.2005    0.2276 H   0  0  0  0  0  0  0  0  0  0  0  0
   -3.1344    2.4594   -1.3821 H   0  0  0  0  0  0  0  0  0  0  0  0
   -3.2098    0.0759   -1.7525 H   0  0  0  0  0  0  0  0  0  0  0  0
   -1.4805    1.2354    0.5587 H   0  0  0  0  0  0  0  0  0  0  0  0
   -1.1691    1.3449   -1.2297 H   0  0  0  0  0  0  0  0  0  0  0  0
   -1.1174   -1.1786    0.3345 H   0  0  0  0  0  0  0  0  0  0  0  0
    0.4555    0.4865    0.9566 H   0  0  0  0  0  0  0  0  0  0  0  0
    0.8014    0.7506   -0.7795 H   0  0  0  0  0  0  0  0  0  0  0  0
    1.1601   -1.8295    0.8522 H   0  0  0  0  0  0  0  0  0  0  0  0
    1.4747   -1.7485   -0.8939 H   0  0  0  0  0  0  0  0  0  0  0  0
    3.5162   -1.6929    0.4359 H   0  0  0  0  0  0  0  0  0  0  0  0
    2.6033    0.7819    1.4759 H   0  0  0  0  0  0  0  0  0  0  0  0
    3.5743   -0.4090   -1.6761 H   0  0  0  0  0  0  0  0  0  0  0  0
    3.1302    1.1155   -0.7433 H   0  0  0  0  0  0  0  0  0  0  0  0
    5.2329   -0.4091    0.2918 H   0  0  0  0  0  0  0  0  0  0  0  0
   -4.0139   -2.3054    0.8413 H   0  0  0  0  0  0  0  0  0  0  0  0
  1  2  1  0
  2  3  1  0
  3  4  1  0
  4  5  1  0
  5  6  1  0
  6  7  1  0
  7  8  1  0
  7  9  1  0
  9 10  1  0
  2 11  1  0
 11 12  2  0
 11 13  1  0
  1 14  1  0
  1 15  1  0
  2 16  1  6
  3 17  1  0
  3 18  1  0
  4 19  1  0
  5 20  1  0
  5 21  1  0
  6 22  1  0
  6 23  1  0
  7 24  1  1
  8 25  1  0
  9 26  1  0
  9 27  1  0
 10 28  1  0
 13 29  1  0
M  END
$$$$
