
     RDKit          3D

 28 28  0  0  0  0  0  0  0  0999 V2000
    4.4527   -1.2085    0.2017 C   0  0  0  0  0  0  0  0  0  0  0  0
    3.0500   -0.6643    0.1668 C   0  0  0  0  0  0  0  0  0  0  0  0
    1.9030   -1.3287    0.2471 N   0  0  0  0  0  0  0  0  0  0  0  0
    0.8563   -0.4705    0.1767 C   0  0  0  0  0  0  0  0  0  0  0  0
   -0.3306   -0.8101    0.2260 N   0  0  0  0  0  0  0  0  0  0  0  0
   -1.5817   -0.2154    0.1843 C   0  0  2  0  0  0  0  0  0  0  0  0
   -2.5353   -0.9363    1.1652 C   0  0  0  0  0  0  0  0  0  0  0  0
   -3.8326   -0.2982    1.1035 N   0  0  0  0  0  0  0  0  0  0  0  0
   -2.3010   -0.2581   -1.1384 C   0  0  0  0  0  0  0  0  0  0  0  0
   -1.6540    0.3479   -2.1781 O   0  0  0  0  0  0  0  0  0  0  0  0
    1.3924    0.7426    0.0506 N   0  0  0  0  0  0  0  0  0  0  0  0
    0.7527    2.0360   -0.0679 C   0  0  0  0  0  0  0  0  0  0  0  0
    2.7342    0.6336    0.0436 N   0  0  0  0  0  0  0  0  0  0  0  0
    5.0026   -0.7649   -0.6523 H   0  0  0  0  0  0  0  0  0  0  0  0
    4.9609   -0.8434    1.1293 H   0  0  0  0  0  0  0  0  0  0  0  0
    4.4457   -2.3003    0.1602 H   0  0  0  0  0  0  0  0  0  0  0  0
   -1.5523    0.8327    0.5399 H   0  0  0  0  0  0  0  0  0  0  0  0
   -2.6857   -1.9918    0.8324 H   0  0  0  0  0  0  0  0  0  0  0  0
   -2.1007   -0.9686    2.1671 H   0  0  0  0  0  0  0  0  0  0  0  0
   -4.6078   -0.9305    1.3937 H   0  0  0  0  0  0  0  0  0  0  0  0
   -3.8155    0.5825    1.6536 H   0  0  0  0  0  0  0  0  0  0  0  0
   -3.3011    0.2352   -0.9636 H   0  0  0  0  0  0  0  0  0  0  0  0
   -2.5382   -1.3097   -1.3872 H   0  0  0  0  0  0  0  0  0  0  0  0
   -1.9058    1.2891   -2.2200 H   0  0  0  0  0  0  0  0  0  0  0  0
    1.5106    2.8372   -0.2567 H   0  0  0  0  0  0  0  0  0  0  0  0
   -0.0538    2.0877   -0.7997 H   0  0  0  0  0  0  0  0  0  0  0  0
    0.2963    2.2684    0.9390 H   0  0  0  0  0  0  0  0  0  0  0  0
    3.4386    1.4062   -0.0415 H   0  0  0  0  0  0  0  0  0  0  0  0
  1  2  1  0
  2  3  2  0
  3  4  1  0
  4  5  2  3
  5  6  1  0
  6  7  1  0
  7  8  1  0
  6  9  1  0
  9 10  1  0
  4 11  1  0
 11 12  1  0
 11 13  1  0
 13  2  1  0
  1 14  1  0
  1 15  1  0
  1 16  1  0
  6 17  1  1
  7 18  1  0
  7 19  1  0
  8 20  1  0
  8 21  1  0
  9 22  1  0
  9 23  1  0
 10 24  1  0
 12 25  1  0
 12 26  1  0
 12 27  1  0
 13 28  1  0
M  END
$$$$

     RDKit          3D

 28 28  0  0  0  0  0  0  0  0999 V2000
    3.5989   -1.7089   -0.6935 C   0  0  0  0  0  0  0  0  0  0  0  0
    2.5610   -0.6820   -0.3579 C   0  0  0  0  0  0  0  0  0  0  0  0
    1.2559   -0.8955   -0.1617 N   0  0  0  0  0  0  0  0  0  0  0  0
    0.6466    0.2677    0.1194 C   0  0  0  0  0  0  0  0  0  0  0  0
   -0.6008    0.4848    0.3701 N   0  0  0  0  0  0  0  0  0  0  0  0
   -1.5158   -0.6620    0.3582 C   0  0  2  0  0  0  0  0  0  0  0  0
   -2.0593   -0.7366   -1.0579 C   0  0  0  0  0  0  0  0  0  0  0  0
   -2.7309    0.4690   -1.3492 N   0  0  0  0  0  0  0  0  0  0  0  0
   -2.6682   -0.3170    1.2894 C   0  0  0  0  0  0  0  0  0  0  0  0
   -3.6061   -1.3289    1.3645 O   0  0  0  0  0  0  0  0  0  0  0  0
    1.5946    1.2097    0.0949 N   0  0  0  0  0  0  0  0  0  0  0  0
    1.4017    2.6100    0.3387 C   0  0  0  0  0  0  0  0  0  0  0  0
    2.7468    0.6346   -0.1929 N   0  0  0  0  0  0  0  0  0  0  0  0
    3.3480   -2.1293   -1.6871 H   0  0  0  0  0  0  0  0  0  0  0  0
    3.6479   -2.5088    0.0809 H   0  0  0  0  0  0  0  0  0  0  0  0
    4.5841   -1.2332   -0.7240 H   0  0  0  0  0  0  0  0  0  0  0  0
   -0.9809   -1.5571    0.6705 H   0  0  0  0  0  0  0  0  0  0  0  0
   -1.1631   -0.8092   -1.7362 H   0  0  0  0  0  0  0  0  0  0  0  0
   -2.6853   -1.6203   -1.2133 H   0  0  0  0  0  0  0  0  0  0  0  0
   -2.5004    1.2962   -0.8310 H   0  0  0  0  0  0  0  0  0  0  0  0
   -3.4323    0.4815   -2.0651 H   0  0  0  0  0  0  0  0  0  0  0  0
   -2.2563   -0.1251    2.3069 H   0  0  0  0  0  0  0  0  0  0  0  0
   -3.1815    0.6066    0.9679 H   0  0  0  0  0  0  0  0  0  0  0  0
   -3.7022   -1.8333    0.5399 H   0  0  0  0  0  0  0  0  0  0  0  0
    1.3099    2.7798    1.4225 H   0  0  0  0  0  0  0  0  0  0  0  0
    0.4791    2.9628   -0.1786 H   0  0  0  0  0  0  0  0  0  0  0  0
    2.2523    3.2142   -0.0225 H   0  0  0  0  0  0  0  0  0  0  0  0
    3.6560    1.1301   -0.2776 H   0  0  0  0  0  0  0  0  0  0  0  0
  1  2  1  0
  2  3  2  0
  3  4  1  0
  4  5  2  3
  5  6  1  0
  6  7  1  0
  7  8  1  0
  6  9  1  0
  9 10  1  0
  4 11  1  0
 11 12  1  0
 11 13  1  0
 13  2  1  0
  1 14  1  0
  1 15  1  0
  1 16  1  0
  6 17  1  1
  7 18  1  0
  7 19  1  0
  8 20  1  0
  8 21  1  0
  9 22  1  0
  9 23  1  0
 10 24  1  0
 12 25  1  0
 12 26  1  0
 12 27  1  0
 13 28  1  0
M  END
$$$$

     RDKit          3D

 28 28  0  0  0  0  0  0  0  0999 V2000
    4.2310    1.5179   -0.0517 C   0  0  0  0  0  0  0  0  0  0  0  0
    2.8987    0.8580   -0.0940 C   0  0  0  0  0  0  0  0  0  0  0  0
    1.6800    1.3820    0.0608 N   0  0  0  0  0  0  0  0  0  0  0  0
    0.7368    0.4283   -0.0526 C   0  0  0  0  0  0  0  0  0  0  0  0
   -0.4932    0.6242    0.0460 N   0  0  0  0  0  0  0  0  0  0  0  0
   -1.6264   -0.1807   -0.0320 C   0  0  2  0  0  0  0  0  0  0  0  0
   -2.7660    0.6839   -0.6031 C   0  0  0  0  0  0  0  0  0  0  0  0
   -2.9248    1.7842    0.3491 N   0  0  0  0  0  0  0  0  0  0  0  0
   -2.1374   -0.7307    1.2721 C   0  0  0  0  0  0  0  0  0  0  0  0
   -3.2638   -1.5041    0.9909 O   0  0  0  0  0  0  0  0  0  0  0  0
    1.4034   -0.7118   -0.2837 N   0  0  0  0  0  0  0  0  0  0  0  0
    0.8788   -2.0252   -0.4814 C   0  0  0  0  0  0  0  0  0  0  0  0
    2.7256   -0.4419   -0.3078 N   0  0  0  0  0  0  0  0  0  0  0  0
    4.9978    0.8387    0.3395 H   0  0  0  0  0  0  0  0  0  0  0  0
    4.2003    2.4903    0.4783 H   0  0  0  0  0  0  0  0  0  0  0  0
    4.4885    1.7776   -1.1200 H   0  0  0  0  0  0  0  0  0  0  0  0
   -1.4884   -0.9951   -0.7682 H   0  0  0  0  0  0  0  0  0  0  0  0
   -3.6854    0.1111   -0.7272 H   0  0  0  0  0  0  0  0  0  0  0  0
   -2.3618    1.0984   -1.5572 H   0  0  0  0  0  0  0  0  0  0  0  0
   -3.9168    2.0824    0.3447 H   0  0  0  0  0  0  0  0  0  0  0  0
   -2.2968    2.5853    0.1009 H   0  0  0  0  0  0  0  0  0  0  0  0
   -2.5056    0.1112    1.9109 H   0  0  0  0  0  0  0  0  0  0  0  0
   -1.4049   -1.3582    1.7803 H   0  0  0  0  0  0  0  0  0  0  0  0
   -3.1964   -1.9782    0.1288 H   0  0  0  0  0  0  0  0  0  0  0  0
    0.4607   -2.1568   -1.5091 H   0  0  0  0  0  0  0  0  0  0  0  0
    1.7185   -2.7790   -0.4151 H   0  0  0  0  0  0  0  0  0  0  0  0
    0.1559   -2.3675    0.2780 H   0  0  0  0  0  0  0  0  0  0  0  0
    3.4915   -1.1444   -0.4691 H   0  0  0  0  0  0  0  0  0  0  0  0
  1  2  1  0
  2  3  2  0
  3  4  1  0
  4  5  2  3
  5  6  1  0
  6  7  1  0
  7  8  1  0
  6  9  1  0
  9 10  1  0
  4 11  1  0
 11 12  1  0
 11 13  1  0
 13  2  1  0
  1 14  1  0
  1 15  1  0
  1 16  1  0
  6 17  1  6
  7 18  1  0
  7 19  1  0
  8 20  1  0
  8 21  1  0
  9 22  1  0
  9 23  1  0
 10 24  1  0
 12 25  1  0
 12 26  1  0
 12 27  1  0
 13 28  1  0
M  END
$$$$

     RDKit          3D

 28 28  0  0  0  0  0  0  0  0999 V2000
    3.5460   -1.9036    0.1715 C   0  0  0  0  0  0  0  0  0  0  0  0
    2.5526   -0.8041   -0.0920 C   0  0  0  0  0  0  0  0  0  0  0  0
    1.2149   -0.8959   -0.1220 N   0  0  0  0  0  0  0  0  0  0  0  0
    0.6749    0.3030   -0.3895 C   0  0  0  0  0  0  0  0  0  0  0  0
   -0.5957    0.6018   -0.4978 N   0  0  0  0  0  0  0  0  0  0  0  0
   -1.6221   -0.4062   -0.3270 C   0  0  2  0  0  0  0  0  0  0  0  0
   -2.9243    0.1688   -0.8069 C   0  0  0  0  0  0  0  0  0  0  0  0
   -4.0359   -0.6994   -0.7059 N   0  0  0  0  0  0  0  0  0  0  0  0
   -1.6525   -0.8474    1.1022 C   0  0  0  0  0  0  0  0  0  0  0  0
   -1.9351    0.2688    1.8893 O   0  0  0  0  0  0  0  0  0  0  0  0
    1.7046    1.1545   -0.5278 N   0  0  0  0  0  0  0  0  0  0  0  0
    1.5721    2.5792   -0.8271 C   0  0  0  0  0  0  0  0  0  0  0  0
    2.8318    0.4861   -0.3484 N   0  0  0  0  0  0  0  0  0  0  0  0
    3.0727   -2.6147    0.8757 H   0  0  0  0  0  0  0  0  0  0  0  0
    3.6836   -2.4582   -0.7817 H   0  0  0  0  0  0  0  0  0  0  0  0
    4.4769   -1.5216    0.6020 H   0  0  0  0  0  0  0  0  0  0  0  0
   -1.3396   -1.2824   -0.9460 H   0  0  0  0  0  0  0  0  0  0  0  0
   -3.1525    1.1079   -0.2618 H   0  0  0  0  0  0  0  0  0  0  0  0
   -2.7920    0.4582   -1.8704 H   0  0  0  0  0  0  0  0  0  0  0  0
   -4.5280   -0.7378    0.1814 H   0  0  0  0  0  0  0  0  0  0  0  0
   -4.5617   -0.8863   -1.5572 H   0  0  0  0  0  0  0  0  0  0  0  0
   -2.3973   -1.6458    1.2717 H   0  0  0  0  0  0  0  0  0  0  0  0
   -0.6615   -1.2894    1.3361 H   0  0  0  0  0  0  0  0  0  0  0  0
   -1.6815    1.1163    1.4251 H   0  0  0  0  0  0  0  0  0  0  0  0
    1.1696    2.7163   -1.8530 H   0  0  0  0  0  0  0  0  0  0  0  0
    2.5892    3.0364   -0.8301 H   0  0  0  0  0  0  0  0  0  0  0  0
    0.9806    3.1078   -0.0790 H   0  0  0  0  0  0  0  0  0  0  0  0
    3.8100    0.8876   -0.3956 H   0  0  0  0  0  0  0  0  0  0  0  0
  1  2  1  0
  2  3  2  0
  3  4  1  0
  4  5  2  3
  5  6  1  0
  6  7  1  0
  7  8  1  0
  6  9  1  0
  9 10  1  0
  4 11  1  0
 11 12  1  0
 11 13  1  0
 13  2  1  0
  1 14  1  0
  1 15  1  0
  1 16  1  0
  6 17  1  6
  7 18  1  0
  7 19  1  0
  8 20  1  0
  8 21  1  0
  9 22  1  0
  9 23  1  0
 10 24  1  0
 12 25  1  0
 12 26  1  0
 12 27  1  0
 13 28  1  0
M  END
$$$$

     RDKit          3D

 28 28  0  0  0  0  0  0  0  0999 V2000
   -3.4470    2.6512    0.6556 C   0  0  0  0  0  0  0  0  0  0  0  0
   -2.4592    1.5566    0.4326 C   0  0  0  0  0  0  0  0  0  0  0  0
   -1.1575    1.6553    0.5937 N   0  0  0  0  0  0  0  0  0  0  0  0
   -0.5846    0.4342    0.2914 C   0  0  0  0  0  0  0  0  0  0  0  0
    0.6666    0.2201    0.3555 N   0  0  0  0  0  0  0  0  0  0  0  0
    1.4849   -0.8777    0.1145 C   0  0  2  0  0  0  0  0  0  0  0  0
    2.6583   -0.8949    1.0966 C   0  0  0  0  0  0  0  0  0  0  0  0
    3.4640    0.2984    0.9748 N   0  0  0  0  0  0  0  0  0  0  0  0
    2.0126   -0.8307   -1.3090 C   0  0  0  0  0  0  0  0  0  0  0  0
    2.7441    0.3618   -1.4245 O   0  0  0  0  0  0  0  0  0  0  0  0
   -1.5931   -0.3696   -0.0482 N   0  0  0  0  0  0  0  0  0  0  0  0
   -1.5368   -1.7632   -0.4533 C   0  0  0  0  0  0  0  0  0  0  0  0
   -2.7487    0.3190    0.0379 N   0  0  0  0  0  0  0  0  0  0  0  0
   -4.4963    2.2496    0.6069 H   0  0  0  0  0  0  0  0  0  0  0  0
   -3.3204    3.1381    1.6376 H   0  0  0  0  0  0  0  0  0  0  0  0
   -3.3516    3.3473   -0.1966 H   0  0  0  0  0  0  0  0  0  0  0  0
    0.9581   -1.8329    0.2517 H   0  0  0  0  0  0  0  0  0  0  0  0
    2.2514   -0.9490    2.1200 H   0  0  0  0  0  0  0  0  0  0  0  0
    3.3111   -1.7644    0.8584 H   0  0  0  0  0  0  0  0  0  0  0  0
    4.2671    0.2079    0.3425 H   0  0  0  0  0  0  0  0  0  0  0  0
    2.8613    1.1168    0.8316 H   0  0  0  0  0  0  0  0  0  0  0  0
    1.1357   -0.7621   -1.9839 H   0  0  0  0  0  0  0  0  0  0  0  0
    2.6186   -1.7227   -1.5409 H   0  0  0  0  0  0  0  0  0  0  0  0
    2.6310    0.6661   -2.3641 H   0  0  0  0  0  0  0  0  0  0  0  0
   -2.5371   -2.0547   -0.8722 H   0  0  0  0  0  0  0  0  0  0  0  0
   -1.3005   -2.4459    0.3848 H   0  0  0  0  0  0  0  0  0  0  0  0
   -0.8216   -1.9029   -1.2778 H   0  0  0  0  0  0  0  0  0  0  0  0
   -3.7104   -0.0517   -0.1691 H   0  0  0  0  0  0  0  0  0  0  0  0
  1  2  1  0
  2  3  2  0
  3  4  1  0
  4  5  2  3
  5  6  1  0
  6  7  1  0
  7  8  1  0
  6  9  1  0
  9 10  1  0
  4 11  1  0
 11 12  1  0
 11 13  1  0
 13  2  1  0
  1 14  1  0
  1 15  1  0
  1 16  1  0
  6 17  1  6
  7 18  1  0
  7 19  1  0
  8 20  1  0
  8 21  1  0
  9 22  1  0
  9 23  1  0
 10 24  1  0
 12 25  1  0
 12 26  1  0
 12 27  1  0
 13 28  1  0
M  END
$$$$

     RDKit          3D

 28 28  0  0  0  0  0  0  0  0999 V2000
    3.2966   -1.9506   -0.5202 C   0  0  0  0  0  0  0  0  0  0  0  0
    2.3785   -0.7964   -0.3341 C   0  0  0  0  0  0  0  0  0  0  0  0
    1.0462   -0.7291   -0.4009 N   0  0  0  0  0  0  0  0  0  0  0  0
    0.6225    0.5146   -0.1661 C   0  0  0  0  0  0  0  0  0  0  0  0
   -0.5518    1.0332   -0.1288 N   0  0  0  0  0  0  0  0  0  0  0  0
   -1.7883    0.3597   -0.3450 C   0  0  2  0  0  0  0  0  0  0  0  0
   -2.6650    0.6106    0.8828 C   0  0  0  0  0  0  0  0  0  0  0  0
   -3.9449   -0.0334    0.7596 N   0  0  0  0  0  0  0  0  0  0  0  0
   -1.5796   -1.1041   -0.5425 C   0  0  0  0  0  0  0  0  0  0  0  0
   -2.7934   -1.7676   -0.7539 O   0  0  0  0  0  0  0  0  0  0  0  0
    1.7570    1.2430    0.0555 N   0  0  0  0  0  0  0  0  0  0  0  0
    1.8077    2.6515    0.3537 C   0  0  0  0  0  0  0  0  0  0  0  0
    2.8006    0.4397   -0.0495 N   0  0  0  0  0  0  0  0  0  0  0  0
    3.6259   -2.2751    0.4708 H   0  0  0  0  0  0  0  0  0  0  0  0
    4.1386   -1.6070   -1.1686 H   0  0  0  0  0  0  0  0  0  0  0  0
    2.8015   -2.8061   -1.0189 H   0  0  0  0  0  0  0  0  0  0  0  0
   -2.2825    0.8197   -1.2243 H   0  0  0  0  0  0  0  0  0  0  0  0
   -2.8101    1.7189    0.9162 H   0  0  0  0  0  0  0  0  0  0  0  0
   -2.1554    0.3240    1.8041 H   0  0  0  0  0  0  0  0  0  0  0  0
   -4.2857   -0.0353   -0.2247 H   0  0  0  0  0  0  0  0  0  0  0  0
   -3.8692   -0.9809    1.1825 H   0  0  0  0  0  0  0  0  0  0  0  0
   -0.9946   -1.2579   -1.4744 H   0  0  0  0  0  0  0  0  0  0  0  0
   -1.0615   -1.5390    0.3134 H   0  0  0  0  0  0  0  0  0  0  0  0
   -2.7691   -2.6719   -0.3178 H   0  0  0  0  0  0  0  0  0  0  0  0
    0.8273    3.1336    0.2104 H   0  0  0  0  0  0  0  0  0  0  0  0
    2.5846    3.1726   -0.2728 H   0  0  0  0  0  0  0  0  0  0  0  0
    2.0728    2.7885    1.4289 H   0  0  0  0  0  0  0  0  0  0  0  0
    3.7912    0.7447    0.0746 H   0  0  0  0  0  0  0  0  0  0  0  0
  1  2  1  0
  2  3  2  0
  3  4  1  0
  4  5  2  3
  5  6  1  0
  6  7  1  0
  7  8  1  0
  6  9  1  0
  9 10  1  0
  4 11  1  0
 11 12  1  0
 11 13  1  0
 13  2  1  0
  1 14  1  0
  1 15  1  0
  1 16  1  0
  6 17  1  6
  7 18  1  0
  7 19  1  0
  8 20  1  0
  8 21  1  0
  9 22  1  0
  9 23  1  0
 10 24  1  0
 12 25  1  0
 12 26  1  0
 12 27  1  0
 13 28  1  0
M  END
$$$$

     RDKit          3D

 28 28  0  0  0  0  0  0  0  0999 V2000
    3.1329    2.0739    0.4303 C   0  0  0  0  0  0  0  0  0  0  0  0
    2.2887    0.8506    0.2854 C   0  0  0  0  0  0  0  0  0  0  0  0
    0.9601    0.7640    0.3447 N   0  0  0  0  0  0  0  0  0  0  0  0
    0.6048   -0.5060    0.1657 C   0  0  0  0  0  0  0  0  0  0  0  0
   -0.5699   -0.9792    0.1561 N   0  0  0  0  0  0  0  0  0  0  0  0
   -1.8199   -0.3077    0.3295 C   0  0  2  0  0  0  0  0  0  0  0  0
   -2.6445   -0.4027   -0.9251 C   0  0  0  0  0  0  0  0  0  0  0  0
   -3.9201    0.2548   -0.8189 N   0  0  0  0  0  0  0  0  0  0  0  0
   -1.6761    1.0727    0.8558 C   0  0  0  0  0  0  0  0  0  0  0  0
   -1.0306    0.9953    2.1033 O   0  0  0  0  0  0  0  0  0  0  0  0
    1.7431   -1.2072   -0.0062 N   0  0  0  0  0  0  0  0  0  0  0  0
    1.8283   -2.6307   -0.2332 C   0  0  0  0  0  0  0  0  0  0  0  0
    2.7631   -0.3803    0.0672 N   0  0  0  0  0  0  0  0  0  0  0  0
    2.5083    2.9471    0.2248 H   0  0  0  0  0  0  0  0  0  0  0  0
    3.9655    1.9764   -0.2920 H   0  0  0  0  0  0  0  0  0  0  0  0
    3.5475    2.0552    1.4549 H   0  0  0  0  0  0  0  0  0  0  0  0
   -2.3741   -0.9018    1.1184 H   0  0  0  0  0  0  0  0  0  0  0  0
   -2.8425   -1.4667   -1.1647 H   0  0  0  0  0  0  0  0  0  0  0  0
   -2.0760    0.0222   -1.7750 H   0  0  0  0  0  0  0  0  0  0  0  0
   -3.8683    1.2492   -0.5498 H   0  0  0  0  0  0  0  0  0  0  0  0
   -4.3976    0.2124   -1.7404 H   0  0  0  0  0  0  0  0  0  0  0  0
   -2.6852    1.4862    1.0945 H   0  0  0  0  0  0  0  0  0  0  0  0
   -1.1511    1.7682    0.1755 H   0  0  0  0  0  0  0  0  0  0  0  0
   -1.6469    0.7493    2.8208 H   0  0  0  0  0  0  0  0  0  0  0  0
    2.6837   -3.0336    0.3448 H   0  0  0  0  0  0  0  0  0  0  0  0
    0.9187   -3.1376    0.1987 H   0  0  0  0  0  0  0  0  0  0  0  0
    1.9653   -2.8983   -1.2899 H   0  0  0  0  0  0  0  0  0  0  0  0
    3.7928   -0.6257   -0.0276 H   0  0  0  0  0  0  0  0  0  0  0  0
  1  2  1  0
  2  3  2  0
  3  4  1  0
  4  5  2  3
  5  6  1  0
  6  7  1  0
  7  8  1  0
  6  9  1  0
  9 10  1  0
  4 11  1  0
 11 12  1  0
 11 13  1  0
 13  2  1  0
  1 14  1  0
  1 15  1  0
  1 16  1  0
  6 17  1  1
  7 18  1  0
  7 19  1  0
  8 20  1  0
  8 21  1  0
  9 22  1  0
  9 23  1  0
 10 24  1  0
 12 25  1  0
 12 26  1  0
 12 27  1  0
 13 28  1  0
M  END
$$$$

     RDKit          3D

 28 28  0  0  0  0  0  0  0  0999 V2000
    4.2487    0.3747   -1.6580 C   0  0  0  0  0  0  0  0  0  0  0  0
    2.8975    0.2719   -1.0120 C   0  0  0  0  0  0  0  0  0  0  0  0
    1.6982    0.2592   -1.5672 N   0  0  0  0  0  0  0  0  0  0  0  0
    0.7588    0.1503   -0.5805 C   0  0  0  0  0  0  0  0  0  0  0  0
   -0.4643    0.1146   -0.8179 N   0  0  0  0  0  0  0  0  0  0  0  0
   -1.6072    0.0091   -0.0042 C   0  0  2  0  0  0  0  0  0  0  0  0
   -2.1108   -1.4181    0.1570 C   0  0  0  0  0  0  0  0  0  0  0  0
   -3.2850   -1.4245    1.0087 N   0  0  0  0  0  0  0  0  0  0  0  0
   -2.7224    0.8053   -0.7109 C   0  0  0  0  0  0  0  0  0  0  0  0
   -2.3413    2.1369   -0.8531 O   0  0  0  0  0  0  0  0  0  0  0  0
    1.4272    0.0987    0.5707 N   0  0  0  0  0  0  0  0  0  0  0  0
    0.8428   -0.0173    1.8821 C   0  0  0  0  0  0  0  0  0  0  0  0
    2.7507    0.1729    0.3191 N   0  0  0  0  0  0  0  0  0  0  0  0
    4.6047    1.4324   -1.6681 H   0  0  0  0  0  0  0  0  0  0  0  0
    4.9940   -0.1987   -1.0666 H   0  0  0  0  0  0  0  0  0  0  0  0
    4.2457   -0.0461   -2.6759 H   0  0  0  0  0  0  0  0  0  0  0  0
   -1.5213    0.4756    0.9771 H   0  0  0  0  0  0  0  0  0  0  0  0
   -2.4634   -1.8201   -0.8375 H   0  0  0  0  0  0  0  0  0  0  0  0
   -1.3597   -2.0777    0.5862 H   0  0  0  0  0  0  0  0  0  0  0  0
   -3.5212   -2.3569    1.3630 H   0  0  0  0  0  0  0  0  0  0  0  0
   -3.0711   -0.7609    1.8083 H   0  0  0  0  0  0  0  0  0  0  0  0
   -2.9545    0.3804   -1.6875 H   0  0  0  0  0  0  0  0  0  0  0  0
   -3.6608    0.7581   -0.0922 H   0  0  0  0  0  0  0  0  0  0  0  0
   -3.1470    2.7108   -0.6878 H   0  0  0  0  0  0  0  0  0  0  0  0
    0.4288    0.9426    2.2646 H   0  0  0  0  0  0  0  0  0  0  0  0
    0.1553   -0.8804    1.9961 H   0  0  0  0  0  0  0  0  0  0  0  0
    1.6682   -0.2475    2.6257 H   0  0  0  0  0  0  0  0  0  0  0  0
    3.5092    0.1545    1.0496 H   0  0  0  0  0  0  0  0  0  0  0  0
  1  2  1  0
  2  3  2  0
  3  4  1  0
  4  5  2  3
  5  6  1  0
  6  7  1  0
  7  8  1  0
  6  9  1  0
  9 10  1  0
  4 11  1  0
 11 12  1  0
 11 13  1  0
 13  2  1  0
  1 14  1  0
  1 15  1  0
  1 16  1  0
  6 17  1  1
  7 18  1  0
  7 19  1  0
  8 20  1  0
  8 21  1  0
  9 22  1  0
  9 23  1  0
 10 24  1  0
 12 25  1  0
 12 26  1  0
 12 27  1  0
 13 28  1  0
M  END
$$$$
