
     RDKit          3D

 28 28  0  0  0  0  0  0  0  0999 V2000
   -5.1908   -0.1538    0.3856 C   0  0  0  0  0  0  0  0  0  0  0  0
   -3.8878   -0.5980   -0.0885 N   0  0  0  0  0  0  0  0  0  0  0  0
   -2.7849    0.3084   -0.2043 C   0  0  0  0  0  0  0  0  0  0  0  0
   -3.0292    1.5527   -0.0170 N   0  0  0  0  0  0  0  0  0  0  0  0
   -1.4793   -0.1132   -0.5085 N   0  0  0  0  0  0  0  0  0  0  0  0
   -0.3142    0.6963   -0.2127 C   0  0  0  0  0  0  0  0  0  0  0  0
    0.9567    0.0051   -0.6432 C   0  0  0  0  0  0  0  0  0  0  0  0
    2.1911    0.8257   -0.3475 C   0  0  0  0  0  0  0  0  0  0  0  0
    2.8749   -0.4046    0.0025 N   0  0  0  0  0  0  0  0  0  0  0  0
    4.1743   -0.9469    0.0135 C   0  0  0  0  0  0  0  0  0  0  0  0
    5.2693   -0.1687   -0.4273 N   0  0  0  0  0  0  0  0  0  0  0  0
    4.3915   -2.1172    0.4087 O   0  0  0  0  0  0  0  0  0  0  0  0
    1.5559   -0.9319    0.3841 C   0  0  0  0  0  0  0  0  0  0  0  0
   -5.0265    0.6262    1.1834 H   0  0  0  0  0  0  0  0  0  0  0  0
   -5.8193    0.2531   -0.4251 H   0  0  0  0  0  0  0  0  0  0  0  0
   -5.6478   -1.0293    0.8970 H   0  0  0  0  0  0  0  0  0  0  0  0
   -3.7046   -1.5885   -0.3618 H   0  0  0  0  0  0  0  0  0  0  0  0
   -2.2685    2.2626   -0.0874 H   0  0  0  0  0  0  0  0  0  0  0  0
   -1.3446   -1.0320   -0.9586 H   0  0  0  0  0  0  0  0  0  0  0  0
   -0.2796    0.8361    0.8913 H   0  0  0  0  0  0  0  0  0  0  0  0
   -0.3679    1.6899   -0.6828 H   0  0  0  0  0  0  0  0  0  0  0  0
    0.9337   -0.4654   -1.6401 H   0  0  0  0  0  0  0  0  0  0  0  0
    2.6207    1.3748   -1.2021 H   0  0  0  0  0  0  0  0  0  0  0  0
    1.9854    1.4682    0.5575 H   0  0  0  0  0  0  0  0  0  0  0  0
    5.2975    0.8844   -0.3646 H   0  0  0  0  0  0  0  0  0  0  0  0
    6.1182   -0.6143   -0.8442 H   0  0  0  0  0  0  0  0  0  0  0  0
    1.3572   -0.6187    1.4281 H   0  0  0  0  0  0  0  0  0  0  0  0
    1.4185   -2.0010    0.1793 H   0  0  0  0  0  0  0  0  0  0  0  0
  1  2  1  0
  2  3  1  0
  3  4  2  3
  3  5  1  0
  5  6  1  0
  6  7  1  0
  7  8  1  0
  8  9  1  0
  9 10  1  0
 10 11  1  0
 10 12  2  0
  9 13  1  0
 13  7  1  0
  1 14  1  0
  1 15  1  0
  1 16  1  0
  2 17  1  0
  4 18  1  0
  5 19  1  0
  6 20  1  0
  6 21  1  0
  7 22  1  0
  8 23  1  0
  8 24  1  0
 11 25  1  0
 11 26  1  0
 13 27  1  0
 13 28  1  0
M  END
$$$$

     RDKit          3D

 28 28  0  0  0  0  0  0  0  0999 V2000
    4.7999   -0.3711   -0.0036 C   0  0  0  0  0  0  0  0  0  0  0  0
    3.4560   -0.8843   -0.1460 N   0  0  0  0  0  0  0  0  0  0  0  0
    2.3524    0.0055   -0.0158 C   0  0  0  0  0  0  0  0  0  0  0  0
    2.4809    1.1872    0.4283 N   0  0  0  0  0  0  0  0  0  0  0  0
    1.0457   -0.4025   -0.3860 N   0  0  0  0  0  0  0  0  0  0  0  0
   -0.1389    0.3487   -0.2750 C   0  0  0  0  0  0  0  0  0  0  0  0
   -0.6701    0.6530    1.0598 C   0  0  0  0  0  0  0  0  0  0  0  0
   -1.9633    1.4804    0.9345 C   0  0  0  0  0  0  0  0  0  0  0  0
   -2.5777    0.2082    0.5199 N   0  0  0  0  0  0  0  0  0  0  0  0
   -3.5697   -0.0812   -0.4142 C   0  0  0  0  0  0  0  0  0  0  0  0
   -3.9642   -1.4292   -0.6091 N   0  0  0  0  0  0  0  0  0  0  0  0
   -4.1494    0.8010   -1.1116 O   0  0  0  0  0  0  0  0  0  0  0  0
   -1.6932   -0.4130    1.4850 C   0  0  0  0  0  0  0  0  0  0  0  0
    4.8946    0.2704    0.8966 H   0  0  0  0  0  0  0  0  0  0  0  0
    4.9981    0.2493   -0.9212 H   0  0  0  0  0  0  0  0  0  0  0  0
    5.5048   -1.2024    0.0878 H   0  0  0  0  0  0  0  0  0  0  0  0
    3.3254   -1.9147   -0.3454 H   0  0  0  0  0  0  0  0  0  0  0  0
    1.7762    1.9084    0.5659 H   0  0  0  0  0  0  0  0  0  0  0  0
    0.9774   -1.3859   -0.7874 H   0  0  0  0  0  0  0  0  0  0  0  0
   -0.9355   -0.1014   -0.9004 H   0  0  0  0  0  0  0  0  0  0  0  0
    0.0598    1.3422   -0.7857 H   0  0  0  0  0  0  0  0  0  0  0  0
   -0.0783    1.0972    1.8415 H   0  0  0  0  0  0  0  0  0  0  0  0
   -2.3467    1.8416    1.9107 H   0  0  0  0  0  0  0  0  0  0  0  0
   -1.9296    2.2517    0.1552 H   0  0  0  0  0  0  0  0  0  0  0  0
   -4.3427   -1.9522    0.2037 H   0  0  0  0  0  0  0  0  0  0  0  0
   -3.8567   -1.8328   -1.5576 H   0  0  0  0  0  0  0  0  0  0  0  0
   -1.4018   -1.4429    1.2950 H   0  0  0  0  0  0  0  0  0  0  0  0
   -2.0536   -0.2315    2.5160 H   0  0  0  0  0  0  0  0  0  0  0  0
  1  2  1  0
  2  3  1  0
  3  4  2  3
  3  5  1  0
  5  6  1  0
  6  7  1  0
  7  8  1  0
  8  9  1  0
  9 10  1  0
 10 11  1  0
 10 12  2  0
  9 13  1  0
 13  7  1  0
  1 14  1  0
  1 15  1  0
  1 16  1  0
  2 17  1  0
  4 18  1  0
  5 19  1  0
  6 20  1  0
  6 21  1  0
  7 22  1  0
  8 23  1  0
  8 24  1  0
 11 25  1  0
 11 26  1  0
 13 27  1  0
 13 28  1  0
M  END
$$$$

     RDKit          3D

 28 28  0  0  0  0  0  0  0  0999 V2000
    4.7646   -0.7746   -0.3750 C   0  0  0  0  0  0  0  0  0  0  0  0
    3.6837   -0.0628   -1.0101 N   0  0  0  0  0  0  0  0  0  0  0  0
    2.3469   -0.0868   -0.5309 C   0  0  0  0  0  0  0  0  0  0  0  0
    1.9923   -0.9999    0.2894 N   0  0  0  0  0  0  0  0  0  0  0  0
    1.3725    0.8709   -0.9268 N   0  0  0  0  0  0  0  0  0  0  0  0
    0.3463    1.2391   -0.0131 C   0  0  0  0  0  0  0  0  0  0  0  0
   -0.6648    0.2146    0.3257 C   0  0  0  0  0  0  0  0  0  0  0  0
   -1.6702    0.8154    1.3202 C   0  0  0  0  0  0  0  0  0  0  0  0
   -2.7286    0.1500    0.5922 N   0  0  0  0  0  0  0  0  0  0  0  0
   -4.0434   -0.2294    0.9533 C   0  0  0  0  0  0  0  0  0  0  0  0
   -4.8726   -0.8777    0.0159 N   0  0  0  0  0  0  0  0  0  0  0  0
   -4.4901    0.0013    2.0985 O   0  0  0  0  0  0  0  0  0  0  0  0
   -1.8582    0.0753   -0.5641 C   0  0  0  0  0  0  0  0  0  0  0  0
    4.5711   -0.9809    0.6912 H   0  0  0  0  0  0  0  0  0  0  0  0
    5.7080   -0.1591   -0.4216 H   0  0  0  0  0  0  0  0  0  0  0  0
    4.9217   -1.7079   -0.9286 H   0  0  0  0  0  0  0  0  0  0  0  0
    3.8538    0.5125   -1.8716 H   0  0  0  0  0  0  0  0  0  0  0  0
    2.6766   -1.7064    0.5942 H   0  0  0  0  0  0  0  0  0  0  0  0
    1.4544    1.2710   -1.8877 H   0  0  0  0  0  0  0  0  0  0  0  0
    0.7695    1.6695    0.9434 H   0  0  0  0  0  0  0  0  0  0  0  0
   -0.2050    2.1154   -0.4612 H   0  0  0  0  0  0  0  0  0  0  0  0
   -0.3358   -0.7513    0.7138 H   0  0  0  0  0  0  0  0  0  0  0  0
   -1.5576    0.4145    2.3429 H   0  0  0  0  0  0  0  0  0  0  0  0
   -1.7368    1.9194    1.2485 H   0  0  0  0  0  0  0  0  0  0  0  0
   -5.0946   -1.9011    0.0564 H   0  0  0  0  0  0  0  0  0  0  0  0
   -5.3189   -0.3565   -0.7875 H   0  0  0  0  0  0  0  0  0  0  0  0
   -2.0190    0.8719   -1.3172 H   0  0  0  0  0  0  0  0  0  0  0  0
   -1.8659   -0.9145   -1.0901 H   0  0  0  0  0  0  0  0  0  0  0  0
  1  2  1  0
  2  3  1  0
  3  4  2  3
  3  5  1  0
  5  6  1  0
  6  7  1  0
  7  8  1  0
  8  9  1  0
  9 10  1  0
 10 11  1  0
 10 12  2  0
  9 13  1  0
 13  7  1  0
  1 14  1  0
  1 15  1  0
  1 16  1  0
  2 17  1  0
  4 18  1  0
  5 19  1  0
  6 20  1  0
  6 21  1  0
  7 22  1  0
  8 23  1  0
  8 24  1  0
 11 25  1  0
 11 26  1  0
 13 27  1  0
 13 28  1  0
M  END
$$$$

     RDKit          3D

 28 28  0  0  0  0  0  0  0  0999 V2000
    4.6687   -0.1489    1.1132 C   0  0  0  0  0  0  0  0  0  0  0  0
    3.2325    0.0440    1.1913 N   0  0  0  0  0  0  0  0  0  0  0  0
    2.4791    0.2856    0.0062 C   0  0  0  0  0  0  0  0  0  0  0  0
    3.1528    0.5485   -1.0625 N   0  0  0  0  0  0  0  0  0  0  0  0
    1.0411    0.2347    0.0185 N   0  0  0  0  0  0  0  0  0  0  0  0
    0.3836    0.3882   -1.2320 C   0  0  0  0  0  0  0  0  0  0  0  0
   -1.0921    0.3492   -1.2306 C   0  0  0  0  0  0  0  0  0  0  0  0
   -1.8023   -0.8424   -0.7442 C   0  0  0  0  0  0  0  0  0  0  0  0
   -2.6168    0.0234    0.1096 N   0  0  0  0  0  0  0  0  0  0  0  0
   -3.8352   -0.1130    0.8378 C   0  0  0  0  0  0  0  0  0  0  0  0
   -4.4905   -1.3582    0.7805 N   0  0  0  0  0  0  0  0  0  0  0  0
   -4.2693    0.8708    1.4930 O   0  0  0  0  0  0  0  0  0  0  0  0
   -1.6752    1.1199   -0.0723 C   0  0  0  0  0  0  0  0  0  0  0  0
    4.9288   -1.1082    0.6165 H   0  0  0  0  0  0  0  0  0  0  0  0
    5.1674    0.6698    0.5571 H   0  0  0  0  0  0  0  0  0  0  0  0
    5.0552   -0.1265    2.1506 H   0  0  0  0  0  0  0  0  0  0  0  0
    2.7144    0.0142    2.0874 H   0  0  0  0  0  0  0  0  0  0  0  0
    2.7041    0.7407   -1.9829 H   0  0  0  0  0  0  0  0  0  0  0  0
    0.6192    0.0858    0.9557 H   0  0  0  0  0  0  0  0  0  0  0  0
    0.7679   -0.4332   -1.9076 H   0  0  0  0  0  0  0  0  0  0  0  0
    0.7692    1.3220   -1.7047 H   0  0  0  0  0  0  0  0  0  0  0  0
   -1.5167    0.6771   -2.2208 H   0  0  0  0  0  0  0  0  0  0  0  0
   -1.2569   -1.5799   -0.1364 H   0  0  0  0  0  0  0  0  0  0  0  0
   -2.4735   -1.3445   -1.4957 H   0  0  0  0  0  0  0  0  0  0  0  0
   -4.7191   -1.7861   -0.1259 H   0  0  0  0  0  0  0  0  0  0  0  0
   -4.7458   -1.8498    1.6465 H   0  0  0  0  0  0  0  0  0  0  0  0
   -0.9941    1.2758    0.7631 H   0  0  0  0  0  0  0  0  0  0  0  0
   -2.1965    2.0410   -0.4115 H   0  0  0  0  0  0  0  0  0  0  0  0
  1  2  1  0
  2  3  1  0
  3  4  2  3
  3  5  1  0
  5  6  1  0
  6  7  1  0
  7  8  1  0
  8  9  1  0
  9 10  1  0
 10 11  1  0
 10 12  2  0
  9 13  1  0
 13  7  1  0
  1 14  1  0
  1 15  1  0
  1 16  1  0
  2 17  1  0
  4 18  1  0
  5 19  1  0
  6 20  1  0
  6 21  1  0
  7 22  1  0
  8 23  1  0
  8 24  1  0
 11 25  1  0
 11 26  1  0
 13 27  1  0
 13 28  1  0
M  END
$$$$

     RDKit          3D

 28 28  0  0  0  0  0  0  0  0999 V2000
   -4.7520   -0.5194   -0.5507 C   0  0  0  0  0  0  0  0  0  0  0  0
   -3.4145   -0.3143   -1.1030 N   0  0  0  0  0  0  0  0  0  0  0  0
   -2.2986    0.0429   -0.2701 C   0  0  0  0  0  0  0  0  0  0  0  0
   -2.5180    0.0636    0.9785 N   0  0  0  0  0  0  0  0  0  0  0  0
   -1.0147    0.3674   -0.8115 N   0  0  0  0  0  0  0  0  0  0  0  0
    0.0621    0.6444    0.0762 C   0  0  0  0  0  0  0  0  0  0  0  0
    0.5775   -0.5271    0.8578 C   0  0  0  0  0  0  0  0  0  0  0  0
    1.7223   -0.0715    1.7725 C   0  0  0  0  0  0  0  0  0  0  0  0
    2.5590   -0.0741    0.5588 N   0  0  0  0  0  0  0  0  0  0  0  0
    3.6372    0.6569    0.0419 C   0  0  0  0  0  0  0  0  0  0  0  0
    4.1786    0.3309   -1.2188 N   0  0  0  0  0  0  0  0  0  0  0  0
    4.1229    1.6007    0.6976 O   0  0  0  0  0  0  0  0  0  0  0  0
    1.7524   -1.2055    0.1344 C   0  0  0  0  0  0  0  0  0  0  0  0
   -5.1619   -1.4266   -1.0307 H   0  0  0  0  0  0  0  0  0  0  0  0
   -5.3702    0.3583   -0.9052 H   0  0  0  0  0  0  0  0  0  0  0  0
   -4.7097   -0.5715    0.5587 H   0  0  0  0  0  0  0  0  0  0  0  0
   -3.2785   -0.4271   -2.1272 H   0  0  0  0  0  0  0  0  0  0  0  0
   -1.9189    0.2750    1.7648 H   0  0  0  0  0  0  0  0  0  0  0  0
   -0.8937    0.3923   -1.8553 H   0  0  0  0  0  0  0  0  0  0  0  0
   -0.1845    1.4432    0.8111 H   0  0  0  0  0  0  0  0  0  0  0  0
    0.9198    1.0649   -0.5356 H   0  0  0  0  0  0  0  0  0  0  0  0
   -0.1354   -1.2252    1.2893 H   0  0  0  0  0  0  0  0  0  0  0  0
    2.0930   -0.8182    2.4776 H   0  0  0  0  0  0  0  0  0  0  0  0
    1.5693    0.9679    2.1492 H   0  0  0  0  0  0  0  0  0  0  0  0
    4.5206    1.0772   -1.8938 H   0  0  0  0  0  0  0  0  0  0  0  0
    4.2829   -0.6514   -1.5747 H   0  0  0  0  0  0  0  0  0  0  0  0
    2.0395   -2.1284    0.6724 H   0  0  0  0  0  0  0  0  0  0  0  0
    1.6133   -1.2991   -0.9639 H   0  0  0  0  0  0  0  0  0  0  0  0
  1  2  1  0
  2  3  1  0
  3  4  2  3
  3  5  1  0
  5  6  1  0
  6  7  1  0
  7  8  1  0
  8  9  1  0
  9 10  1  0
 10 11  1  0
 10 12  2  0
  9 13  1  0
 13  7  1  0
  1 14  1  0
  1 15  1  0
  1 16  1  0
  2 17  1  0
  4 18  1  0
  5 19  1  0
  6 20  1  0
  6 21  1  0
  7 22  1  0
  8 23  1  0
  8 24  1  0
 11 25  1  0
 11 26  1  0
 13 27  1  0
 13 28  1  0
M  END
$$$$

     RDKit          3D

 28 28  0  0  0  0  0  0  0  0999 V2000
   -5.0735   -0.4155    0.3743 C   0  0  0  0  0  0  0  0  0  0  0  0
   -3.6858   -0.7079    0.7269 N   0  0  0  0  0  0  0  0  0  0  0  0
   -2.6737   -0.0735   -0.0415 C   0  0  0  0  0  0  0  0  0  0  0  0
   -2.9381    0.4926   -1.1714 N   0  0  0  0  0  0  0  0  0  0  0  0
   -1.3553   -0.0888    0.4880 N   0  0  0  0  0  0  0  0  0  0  0  0
   -0.3530    0.8203   -0.0179 C   0  0  0  0  0  0  0  0  0  0  0  0
    0.9293    0.5870    0.7126 C   0  0  0  0  0  0  0  0  0  0  0  0
    1.4394   -0.8199    0.5411 C   0  0  0  0  0  0  0  0  0  0  0  0
    2.7515   -0.2719    0.1574 N   0  0  0  0  0  0  0  0  0  0  0  0
    4.0716   -0.7846    0.0620 C   0  0  0  0  0  0  0  0  0  0  0  0
    5.1135    0.0616   -0.3548 N   0  0  0  0  0  0  0  0  0  0  0  0
    4.3000   -1.9846    0.3490 O   0  0  0  0  0  0  0  0  0  0  0  0
    2.1295    1.0274   -0.0864 C   0  0  0  0  0  0  0  0  0  0  0  0
   -5.7620   -0.9030    1.0948 H   0  0  0  0  0  0  0  0  0  0  0  0
   -5.2071   -0.8109   -0.6609 H   0  0  0  0  0  0  0  0  0  0  0  0
   -5.1936    0.6894    0.3840 H   0  0  0  0  0  0  0  0  0  0  0  0
   -3.4353   -1.3586    1.5140 H   0  0  0  0  0  0  0  0  0  0  0  0
   -2.1609    0.9440   -1.6964 H   0  0  0  0  0  0  0  0  0  0  0  0
   -1.1189   -0.7567    1.2392 H   0  0  0  0  0  0  0  0  0  0  0  0
   -0.6742    1.8828    0.0518 H   0  0  0  0  0  0  0  0  0  0  0  0
   -0.1631    0.6058   -1.0987 H   0  0  0  0  0  0  0  0  0  0  0  0
    0.9500    0.8704    1.7773 H   0  0  0  0  0  0  0  0  0  0  0  0
    1.4975   -1.4280    1.4525 H   0  0  0  0  0  0  0  0  0  0  0  0
    0.9774   -1.3422   -0.3426 H   0  0  0  0  0  0  0  0  0  0  0  0
    5.1416    0.4069   -1.3245 H   0  0  0  0  0  0  0  0  0  0  0  0
    5.8492    0.3361    0.3112 H   0  0  0  0  0  0  0  0  0  0  0  0
    1.9663    1.1625   -1.1561 H   0  0  0  0  0  0  0  0  0  0  0  0
    2.6777    1.8593    0.4265 H   0  0  0  0  0  0  0  0  0  0  0  0
  1  2  1  0
  2  3  1  0
  3  4  2  3
  3  5  1  0
  5  6  1  0
  6  7  1  0
  7  8  1  0
  8  9  1  0
  9 10  1  0
 10 11  1  0
 10 12  2  0
  9 13  1  0
 13  7  1  0
  1 14  1  0
  1 15  1  0
  1 16  1  0
  2 17  1  0
  4 18  1  0
  5 19  1  0
  6 20  1  0
  6 21  1  0
  7 22  1  0
  8 23  1  0
  8 24  1  0
 11 25  1  0
 11 26  1  0
 13 27  1  0
 13 28  1  0
M  END
$$$$

     RDKit          3D

 28 28  0  0  0  0  0  0  0  0999 V2000
   -5.1047    0.1901    1.0223 C   0  0  0  0  0  0  0  0  0  0  0  0
   -3.7813   -0.3941    1.1123 N   0  0  0  0  0  0  0  0  0  0  0  0
   -2.7263    0.1284    0.2962 C   0  0  0  0  0  0  0  0  0  0  0  0
   -3.0956    0.8435   -0.7157 N   0  0  0  0  0  0  0  0  0  0  0  0
   -1.3581   -0.1295    0.5896 N   0  0  0  0  0  0  0  0  0  0  0  0
   -0.3706    0.6427   -0.1364 C   0  0  0  0  0  0  0  0  0  0  0  0
    1.0368    0.2716    0.2690 C   0  0  0  0  0  0  0  0  0  0  0  0
    2.1171    1.0460   -0.4564 C   0  0  0  0  0  0  0  0  0  0  0  0
    2.8550   -0.2169   -0.5355 N   0  0  0  0  0  0  0  0  0  0  0  0
    4.1830   -0.6651   -0.5573 C   0  0  0  0  0  0  0  0  0  0  0  0
    5.2462    0.2555   -0.4904 N   0  0  0  0  0  0  0  0  0  0  0  0
    4.4314   -1.8788   -0.6360 O   0  0  0  0  0  0  0  0  0  0  0  0
    1.5629   -0.8652   -0.5858 C   0  0  0  0  0  0  0  0  0  0  0  0
   -5.2658    0.6618    0.0231 H   0  0  0  0  0  0  0  0  0  0  0  0
   -5.2990    0.9270    1.8132 H   0  0  0  0  0  0  0  0  0  0  0  0
   -5.8762   -0.6067    1.1254 H   0  0  0  0  0  0  0  0  0  0  0  0
   -3.5830   -1.1854    1.7581 H   0  0  0  0  0  0  0  0  0  0  0  0
   -2.3491    1.2357   -1.3255 H   0  0  0  0  0  0  0  0  0  0  0  0
   -1.1036   -0.8511    1.3031 H   0  0  0  0  0  0  0  0  0  0  0  0
   -0.4983    0.3654   -1.2205 H   0  0  0  0  0  0  0  0  0  0  0  0
   -0.5702    1.7152   -0.0488 H   0  0  0  0  0  0  0  0  0  0  0  0
    1.1925    0.1267    1.3470 H   0  0  0  0  0  0  0  0  0  0  0  0
    1.7227    1.3936   -1.4345 H   0  0  0  0  0  0  0  0  0  0  0  0
    2.6231    1.8233    0.1449 H   0  0  0  0  0  0  0  0  0  0  0  0
    6.2145    0.0386   -0.8566 H   0  0  0  0  0  0  0  0  0  0  0  0
    5.1217    1.1984   -0.0729 H   0  0  0  0  0  0  0  0  0  0  0  0
    1.1688   -0.8303   -1.6111 H   0  0  0  0  0  0  0  0  0  0  0  0
    1.5061   -1.8633   -0.1208 H   0  0  0  0  0  0  0  0  0  0  0  0
  1  2  1  0
  2  3  1  0
  3  4  2  3
  3  5  1  0
  5  6  1  0
  6  7  1  0
  7  8  1  0
  8  9  1  0
  9 10  1  0
 10 11  1  0
 10 12  2  0
  9 13  1  0
 13  7  1  0
  1 14  1  0
  1 15  1  0
  1 16  1  0
  2 17  1  0
  4 18  1  0
  5 19  1  0
  6 20  1  0
  6 21  1  0
  7 22  1  0
  8 23  1  0
  8 24  1  0
 11 25  1  0
 11 26  1  0
 13 27  1  0
 13 28  1  0
M  END
$$$$

     RDKit          3D

 28 28  0  0  0  0  0  0  0  0999 V2000
   -4.8022    0.6548   -0.6734 C   0  0  0  0  0  0  0  0  0  0  0  0
   -3.3749    0.4812   -0.8645 N   0  0  0  0  0  0  0  0  0  0  0  0
   -2.5527   -0.0247    0.1854 C   0  0  0  0  0  0  0  0  0  0  0  0
   -3.1604   -0.6076    1.1660 N   0  0  0  0  0  0  0  0  0  0  0  0
   -1.1340    0.1020    0.1614 N   0  0  0  0  0  0  0  0  0  0  0  0
   -0.3798   -0.6480    1.1102 C   0  0  0  0  0  0  0  0  0  0  0  0
    1.0876   -0.4764    1.0377 C   0  0  0  0  0  0  0  0  0  0  0  0
    1.7643   -0.8477   -0.2479 C   0  0  0  0  0  0  0  0  0  0  0  0
    2.6860    0.2326    0.0033 N   0  0  0  0  0  0  0  0  0  0  0  0
    4.0226    0.5262   -0.3337 C   0  0  0  0  0  0  0  0  0  0  0  0
    4.7758   -0.3979   -1.1239 N   0  0  0  0  0  0  0  0  0  0  0  0
    4.6169    1.5748    0.0222 O   0  0  0  0  0  0  0  0  0  0  0  0
    1.6331    0.8767    0.7512 C   0  0  0  0  0  0  0  0  0  0  0  0
   -5.1599    1.6390   -1.0593 H   0  0  0  0  0  0  0  0  0  0  0  0
   -5.0006    0.6777    0.4295 H   0  0  0  0  0  0  0  0  0  0  0  0
   -5.3865   -0.1805   -1.0955 H   0  0  0  0  0  0  0  0  0  0  0  0
   -2.8904    0.7140   -1.7630 H   0  0  0  0  0  0  0  0  0  0  0  0
   -2.6713   -1.0155    1.9869 H   0  0  0  0  0  0  0  0  0  0  0  0
   -0.7437    0.7460   -0.5617 H   0  0  0  0  0  0  0  0  0  0  0  0
   -0.6085   -1.7356    0.9531 H   0  0  0  0  0  0  0  0  0  0  0  0
   -0.7296   -0.4012    2.1168 H   0  0  0  0  0  0  0  0  0  0  0  0
    1.5927   -0.9357    1.9072 H   0  0  0  0  0  0  0  0  0  0  0  0
    1.1491   -0.6432   -1.1524 H   0  0  0  0  0  0  0  0  0  0  0  0
    2.1710   -1.8672   -0.1908 H   0  0  0  0  0  0  0  0  0  0  0  0
    5.3562   -0.0046   -1.8957 H   0  0  0  0  0  0  0  0  0  0  0  0
    4.7707   -1.4171   -0.9675 H   0  0  0  0  0  0  0  0  0  0  0  0
    0.9900    1.5596    0.1411 H   0  0  0  0  0  0  0  0  0  0  0  0
    1.9786    1.4181    1.6722 H   0  0  0  0  0  0  0  0  0  0  0  0
  1  2  1  0
  2  3  1  0
  3  4  2  3
  3  5  1  0
  5  6  1  0
  6  7  1  0
  7  8  1  0
  8  9  1  0
  9 10  1  0
 10 11  1  0
 10 12  2  0
  9 13  1  0
 13  7  1  0
  1 14  1  0
  1 15  1  0
  1 16  1  0
  2 17  1  0
  4 18  1  0
  5 19  1  0
  6 20  1  0
  6 21  1  0
  7 22  1  0
  8 23  1  0
  8 24  1  0
 11 25  1  0
 11 26  1  0
 13 27  1  0
 13 28  1  0
M  END
$$$$
