
     RDKit          3D

 25 25  0  0  0  0  0  0  0  0999 V2000
    2.6624    2.5295   -0.5312 O   0  0  0  0  0  0  0  0  0  0  0  0
    2.9984    1.4102   -0.0883 C   0  0  0  0  0  0  0  0  0  0  0  0
    4.3355    1.0739   -0.1029 O   0  0  0  0  0  0  0  0  0  0  0  0
    1.9982    0.5001    0.4235 C   0  0  0  0  0  0  0  0  0  0  0  0
    2.1262    0.0986    1.7364 F   0  0  0  0  0  0  0  0  0  0  0  0
    0.5420    0.9073    0.1127 C   0  0  0  0  0  0  0  0  0  0  0  0
    0.3240   -0.4415   -0.0040 N   0  0  0  0  0  0  0  0  0  0  0  0
   -0.5968   -1.2516    0.5172 C   0  0  0  0  0  0  0  0  0  0  0  0
   -2.0083   -1.0178   -0.0192 C   0  0  1  0  0  0  0  0  0  0  0  0
   -2.8142   -1.9494    0.6441 O   0  0  0  0  0  0  0  0  0  0  0  0
   -2.4685    0.4018    0.2707 C   0  0  0  0  0  0  0  0  0  0  0  0
   -3.7927    0.4801   -0.1754 O   0  0  0  0  0  0  0  0  0  0  0  0
    1.6220   -0.6880   -0.4446 C   0  0  0  0  0  0  0  0  0  0  0  0
    5.0822    1.7857   -0.0499 H   0  0  0  0  0  0  0  0  0  0  0  0
    0.1486    1.5028    0.9582 H   0  0  0  0  0  0  0  0  0  0  0  0
    0.5643    1.4518   -0.8537 H   0  0  0  0  0  0  0  0  0  0  0  0
   -0.6867   -1.1622    1.6357 H   0  0  0  0  0  0  0  0  0  0  0  0
   -0.3708   -2.3370    0.3498 H   0  0  0  0  0  0  0  0  0  0  0  0
   -1.9691   -1.1817   -1.1117 H   0  0  0  0  0  0  0  0  0  0  0  0
   -2.8824   -2.7503    0.0913 H   0  0  0  0  0  0  0  0  0  0  0  0
   -2.4210    0.6184    1.3546 H   0  0  0  0  0  0  0  0  0  0  0  0
   -1.8713    1.1394   -0.2721 H   0  0  0  0  0  0  0  0  0  0  0  0
   -4.2837    1.0336    0.4700 H   0  0  0  0  0  0  0  0  0  0  0  0
    1.7299   -0.4955   -1.5493 H   0  0  0  0  0  0  0  0  0  0  0  0
    2.0319   -1.6581   -0.1300 H   0  0  0  0  0  0  0  0  0  0  0  0
  1  2  2  0
  2  3  1  0
  2  4  1  0
  4  5  1  0
  4  6  1  0
  6  7  1  0
  7  8  1  0
  8  9  1  0
  9 10  1  0
  9 11  1  0
 11 12  1  0
  7 13  1  0
 13  4  1  0
  3 14  1  0
  6 15  1  0
  6 16  1  0
  8 17  1  0
  8 18  1  0
  9 19  1  6
 10 20  1  0
 11 21  1  0
 11 22  1  0
 12 23  1  0
 13 24  1  0
 13 25  1  0
M  END
$$$$

     RDKit          3D

 25 25  0  0  0  0  0  0  0  0999 V2000
   -3.1654    2.0622   -0.0346 O   0  0  0  0  0  0  0  0  0  0  0  0
   -3.1935    0.8260   -0.2599 C   0  0  0  0  0  0  0  0  0  0  0  0
   -4.3363    0.2955   -0.8312 O   0  0  0  0  0  0  0  0  0  0  0  0
   -2.0430   -0.0361    0.0731 C   0  0  0  0  0  0  0  0  0  0  0  0
   -2.3793   -1.0689    0.9516 F   0  0  0  0  0  0  0  0  0  0  0  0
   -0.8179    0.7517    0.5582 C   0  0  0  0  0  0  0  0  0  0  0  0
    0.0240    0.0949   -0.3707 N   0  0  0  0  0  0  0  0  0  0  0  0
    0.9250   -0.9099    0.0418 C   0  0  0  0  0  0  0  0  0  0  0  0
    2.0653   -0.4853    0.8883 C   0  0  1  0  0  0  0  0  0  0  0  0
    2.8384   -1.6335    1.1770 O   0  0  0  0  0  0  0  0  0  0  0  0
    3.0060    0.4742    0.1924 C   0  0  0  0  0  0  0  0  0  0  0  0
    2.3240    1.6389   -0.1254 O   0  0  0  0  0  0  0  0  0  0  0  0
   -1.1609   -0.4568   -1.0541 C   0  0  0  0  0  0  0  0  0  0  0  0
   -5.2775    0.6280   -0.5612 H   0  0  0  0  0  0  0  0  0  0  0  0
   -0.9419    1.8334    0.2626 H   0  0  0  0  0  0  0  0  0  0  0  0
   -0.6972    0.5946    1.6245 H   0  0  0  0  0  0  0  0  0  0  0  0
    0.3622   -1.7340    0.5248 H   0  0  0  0  0  0  0  0  0  0  0  0
    1.3650   -1.3739   -0.8854 H   0  0  0  0  0  0  0  0  0  0  0  0
    1.8154   -0.0498    1.8637 H   0  0  0  0  0  0  0  0  0  0  0  0
    2.6711   -2.3312    0.4715 H   0  0  0  0  0  0  0  0  0  0  0  0
    3.5070    0.0193   -0.6853 H   0  0  0  0  0  0  0  0  0  0  0  0
    3.8204    0.7471    0.9040 H   0  0  0  0  0  0  0  0  0  0  0  0
    1.8244    1.5677   -0.9819 H   0  0  0  0  0  0  0  0  0  0  0  0
   -1.4135    0.0989   -1.9850 H   0  0  0  0  0  0  0  0  0  0  0  0
   -1.1216   -1.5530   -1.1838 H   0  0  0  0  0  0  0  0  0  0  0  0
  1  2  2  0
  2  3  1  0
  2  4  1  0
  4  5  1  0
  4  6  1  0
  6  7  1  0
  7  8  1  0
  8  9  1  0
  9 10  1  0
  9 11  1  0
 11 12  1  0
  7 13  1  0
 13  4  1  0
  3 14  1  0
  6 15  1  0
  6 16  1  0
  8 17  1  0
  8 18  1  0
  9 19  1  1
 10 20  1  0
 11 21  1  0
 11 22  1  0
 12 23  1  0
 13 24  1  0
 13 25  1  0
M  END
$$$$

     RDKit          3D

 25 25  0  0  0  0  0  0  0  0999 V2000
   -4.0527    0.2308   -1.2611 O   0  0  0  0  0  0  0  0  0  0  0  0
   -3.3634    0.1664   -0.2149 C   0  0  0  0  0  0  0  0  0  0  0  0
   -4.0216   -0.1644    0.9696 O   0  0  0  0  0  0  0  0  0  0  0  0
   -1.9217    0.4123   -0.1441 C   0  0  0  0  0  0  0  0  0  0  0  0
   -1.6448    1.4605    0.7035 F   0  0  0  0  0  0  0  0  0  0  0  0
   -1.1525   -0.8498    0.1126 C   0  0  0  0  0  0  0  0  0  0  0  0
   -0.1616   -0.4414   -0.8447 N   0  0  0  0  0  0  0  0  0  0  0  0
    0.9626    0.3098   -0.3119 C   0  0  0  0  0  0  0  0  0  0  0  0
    1.8210   -0.5603    0.5601 C   0  0  1  0  0  0  0  0  0  0  0  0
    2.3544   -1.6585   -0.1194 O   0  0  0  0  0  0  0  0  0  0  0  0
    2.9211    0.2482    1.2033 C   0  0  0  0  0  0  0  0  0  0  0  0
    3.7997    0.7068    0.2351 O   0  0  0  0  0  0  0  0  0  0  0  0
   -1.1717    0.4465   -1.4334 C   0  0  0  0  0  0  0  0  0  0  0  0
   -4.9891    0.0760    1.1518 H   0  0  0  0  0  0  0  0  0  0  0  0
   -1.7050   -1.7350   -0.2853 H   0  0  0  0  0  0  0  0  0  0  0  0
   -0.8395   -1.0370    1.1385 H   0  0  0  0  0  0  0  0  0  0  0  0
    1.5414    0.7584   -1.1329 H   0  0  0  0  0  0  0  0  0  0  0  0
    0.5930    1.1439    0.3150 H   0  0  0  0  0  0  0  0  0  0  0  0
    1.1767   -0.9569    1.3983 H   0  0  0  0  0  0  0  0  0  0  0  0
    2.8114   -1.3560   -0.9347 H   0  0  0  0  0  0  0  0  0  0  0  0
    3.4845   -0.3192    1.9544 H   0  0  0  0  0  0  0  0  0  0  0  0
    2.4323    1.1555    1.6310 H   0  0  0  0  0  0  0  0  0  0  0  0
    3.5054    0.5390   -0.6908 H   0  0  0  0  0  0  0  0  0  0  0  0
   -1.6801    0.0129   -2.3029 H   0  0  0  0  0  0  0  0  0  0  0  0
   -0.6998    1.4116   -1.6970 H   0  0  0  0  0  0  0  0  0  0  0  0
  1  2  2  0
  2  3  1  0
  2  4  1  0
  4  5  1  0
  4  6  1  0
  6  7  1  0
  7  8  1  0
  8  9  1  0
  9 10  1  0
  9 11  1  0
 11 12  1  0
  7 13  1  0
 13  4  1  0
  3 14  1  0
  6 15  1  0
  6 16  1  0
  8 17  1  0
  8 18  1  0
  9 19  1  1
 10 20  1  0
 11 21  1  0
 11 22  1  0
 12 23  1  0
 13 24  1  0
 13 25  1  0
M  END
$$$$

     RDKit          3D

 25 25  0  0  0  0  0  0  0  0999 V2000
    4.0180    1.0276    0.5263 O   0  0  0  0  0  0  0  0  0  0  0  0
    3.3032   -0.0010    0.4305 C   0  0  0  0  0  0  0  0  0  0  0  0
    3.9230   -1.1263   -0.1279 O   0  0  0  0  0  0  0  0  0  0  0  0
    1.9128   -0.1219    0.8419 C   0  0  0  0  0  0  0  0  0  0  0  0
    1.6192   -1.0575    1.7944 F   0  0  0  0  0  0  0  0  0  0  0  0
    1.1387    1.1550    1.0370 C   0  0  0  0  0  0  0  0  0  0  0  0
    0.0130    0.4468    0.4161 N   0  0  0  0  0  0  0  0  0  0  0  0
   -0.8846    1.2936   -0.3257 C   0  0  0  0  0  0  0  0  0  0  0  0
   -1.9703    0.3973   -0.8872 C   0  0  1  0  0  0  0  0  0  0  0  0
   -1.4015   -0.5539   -1.7106 O   0  0  0  0  0  0  0  0  0  0  0  0
   -2.7827   -0.2371    0.2290 C   0  0  0  0  0  0  0  0  0  0  0  0
   -3.7891   -0.9952   -0.3563 O   0  0  0  0  0  0  0  0  0  0  0  0
    1.0032   -0.2502   -0.3809 C   0  0  0  0  0  0  0  0  0  0  0  0
    4.9186   -1.1798   -0.2771 H   0  0  0  0  0  0  0  0  0  0  0  0
    0.9619    1.3849    2.0875 H   0  0  0  0  0  0  0  0  0  0  0  0
    1.4988    2.0250    0.4633 H   0  0  0  0  0  0  0  0  0  0  0  0
   -1.2916    2.1245    0.2553 H   0  0  0  0  0  0  0  0  0  0  0  0
   -0.3101    1.6655   -1.2174 H   0  0  0  0  0  0  0  0  0  0  0  0
   -2.6311    1.0314   -1.5066 H   0  0  0  0  0  0  0  0  0  0  0  0
   -1.5205   -1.4366   -1.2682 H   0  0  0  0  0  0  0  0  0  0  0  0
   -2.1193   -0.8547    0.8508 H   0  0  0  0  0  0  0  0  0  0  0  0
   -3.1816    0.5836    0.8522 H   0  0  0  0  0  0  0  0  0  0  0  0
   -4.6247   -0.8542    0.1373 H   0  0  0  0  0  0  0  0  0  0  0  0
    0.7910   -1.2883   -0.6296 H   0  0  0  0  0  0  0  0  0  0  0  0
    1.4058    0.3505   -1.2341 H   0  0  0  0  0  0  0  0  0  0  0  0
  1  2  2  0
  2  3  1  0
  2  4  1  0
  4  5  1  0
  4  6  1  0
  6  7  1  0
  7  8  1  0
  8  9  1  0
  9 10  1  0
  9 11  1  0
 11 12  1  0
  7 13  1  0
 13  4  1  0
  3 14  1  0
  6 15  1  0
  6 16  1  0
  8 17  1  0
  8 18  1  0
  9 19  1  6
 10 20  1  0
 11 21  1  0
 11 22  1  0
 12 23  1  0
 13 24  1  0
 13 25  1  0
M  END
$$$$

     RDKit          3D

 25 25  0  0  0  0  0  0  0  0999 V2000
   -4.2103   -0.3557    0.1137 O   0  0  0  0  0  0  0  0  0  0  0  0
   -3.4088    0.5003   -0.3104 C   0  0  0  0  0  0  0  0  0  0  0  0
   -3.7941    1.8181   -0.3369 O   0  0  0  0  0  0  0  0  0  0  0  0
   -2.0566    0.1285   -0.7819 C   0  0  0  0  0  0  0  0  0  0  0  0
   -1.8553    0.4187   -2.1214 F   0  0  0  0  0  0  0  0  0  0  0  0
   -0.9815    0.7593    0.0965 C   0  0  0  0  0  0  0  0  0  0  0  0
   -0.3873   -0.5272    0.2577 N   0  0  0  0  0  0  0  0  0  0  0  0
    0.8648   -0.7807   -0.3967 C   0  0  0  0  0  0  0  0  0  0  0  0
    1.9474    0.0479    0.2326 C   0  0  1  0  0  0  0  0  0  0  0  0
    2.0527   -0.2693    1.5769 O   0  0  0  0  0  0  0  0  0  0  0  0
    3.2904   -0.2069   -0.4369 C   0  0  0  0  0  0  0  0  0  0  0  0
    4.2255    0.6042    0.1917 O   0  0  0  0  0  0  0  0  0  0  0  0
   -1.5369   -1.1874   -0.3101 C   0  0  0  0  0  0  0  0  0  0  0  0
   -4.4906    2.2158    0.3023 H   0  0  0  0  0  0  0  0  0  0  0  0
   -0.3997    1.5064   -0.4629 H   0  0  0  0  0  0  0  0  0  0  0  0
   -1.4033    1.1221    1.0658 H   0  0  0  0  0  0  0  0  0  0  0  0
    1.1225   -1.8573   -0.1663 H   0  0  0  0  0  0  0  0  0  0  0  0
    0.8403   -0.7101   -1.4810 H   0  0  0  0  0  0  0  0  0  0  0  0
    1.7023    1.1237    0.1656 H   0  0  0  0  0  0  0  0  0  0  0  0
    1.4217   -0.9756    1.8272 H   0  0  0  0  0  0  0  0  0  0  0  0
    3.5337   -1.2852   -0.2963 H   0  0  0  0  0  0  0  0  0  0  0  0
    3.1825   -0.0104   -1.5215 H   0  0  0  0  0  0  0  0  0  0  0  0
    3.8222    1.4570    0.5264 H   0  0  0  0  0  0  0  0  0  0  0  0
   -1.3359   -1.9108   -1.1255 H   0  0  0  0  0  0  0  0  0  0  0  0
   -2.1458   -1.6253    0.5183 H   0  0  0  0  0  0  0  0  0  0  0  0
  1  2  2  0
  2  3  1  0
  2  4  1  0
  4  5  1  0
  4  6  1  0
  6  7  1  0
  7  8  1  0
  8  9  1  0
  9 10  1  0
  9 11  1  0
 11 12  1  0
  7 13  1  0
 13  4  1  0
  3 14  1  0
  6 15  1  0
  6 16  1  0
  8 17  1  0
  8 18  1  0
  9 19  1  1
 10 20  1  0
 11 21  1  0
 11 22  1  0
 12 23  1  0
 13 24  1  0
 13 25  1  0
M  END
$$$$

     RDKit          3D

 25 25  0  0  0  0  0  0  0  0999 V2000
    3.6273    2.0552    0.9982 O   0  0  0  0  0  0  0  0  0  0  0  0
    3.0748    0.9290    0.7186 C   0  0  0  0  0  0  0  0  0  0  0  0
    3.8608   -0.1830    0.8292 O   0  0  0  0  0  0  0  0  0  0  0  0
    1.6711    0.9989    0.3166 C   0  0  0  0  0  0  0  0  0  0  0  0
    1.1195    2.2387    0.2676 F   0  0  0  0  0  0  0  0  0  0  0  0
    0.7256    0.0049    1.0189 C   0  0  0  0  0  0  0  0  0  0  0  0
    0.0306   -0.0171   -0.2548 N   0  0  0  0  0  0  0  0  0  0  0  0
   -0.8025   -1.1134   -0.5485 C   0  0  0  0  0  0  0  0  0  0  0  0
   -2.0195   -1.0147    0.3880 C   0  0  1  0  0  0  0  0  0  0  0  0
   -1.6397   -1.0579    1.7204 O   0  0  0  0  0  0  0  0  0  0  0  0
   -2.7519    0.3013    0.1160 C   0  0  0  0  0  0  0  0  0  0  0  0
   -1.9599    1.3895    0.3782 O   0  0  0  0  0  0  0  0  0  0  0  0
    1.3177    0.1128   -0.8919 C   0  0  0  0  0  0  0  0  0  0  0  0
    4.7859   -0.1846    0.3986 H   0  0  0  0  0  0  0  0  0  0  0  0
    0.1768    0.4276    1.8691 H   0  0  0  0  0  0  0  0  0  0  0  0
    1.2785   -0.9441    1.2314 H   0  0  0  0  0  0  0  0  0  0  0  0
   -0.3513   -2.1011   -0.4945 H   0  0  0  0  0  0  0  0  0  0  0  0
   -1.2307   -1.0021   -1.5810 H   0  0  0  0  0  0  0  0  0  0  0  0
   -2.7688   -1.8124    0.1189 H   0  0  0  0  0  0  0  0  0  0  0  0
   -2.2581   -1.6866    2.1838 H   0  0  0  0  0  0  0  0  0  0  0  0
   -3.0082    0.3509   -0.9762 H   0  0  0  0  0  0  0  0  0  0  0  0
   -3.6439    0.3360    0.7495 H   0  0  0  0  0  0  0  0  0  0  0  0
   -2.4104    2.1332    0.8292 H   0  0  0  0  0  0  0  0  0  0  0  0
    1.8722   -0.8380   -0.8715 H   0  0  0  0  0  0  0  0  0  0  0  0
    1.3039    0.6771   -1.8481 H   0  0  0  0  0  0  0  0  0  0  0  0
  1  2  2  0
  2  3  1  0
  2  4  1  0
  4  5  1  0
  4  6  1  0
  6  7  1  0
  7  8  1  0
  8  9  1  0
  9 10  1  0
  9 11  1  0
 11 12  1  0
  7 13  1  0
 13  4  1  0
  3 14  1  0
  6 15  1  0
  6 16  1  0
  8 17  1  0
  8 18  1  0
  9 19  1  6
 10 20  1  0
 11 21  1  0
 11 22  1  0
 12 23  1  0
 13 24  1  0
 13 25  1  0
M  END
$$$$

     RDKit          3D

 25 25  0  0  0  0  0  0  0  0999 V2000
   -4.3873   -0.0938    0.6583 O   0  0  0  0  0  0  0  0  0  0  0  0
   -3.1749    0.1188    0.4091 C   0  0  0  0  0  0  0  0  0  0  0  0
   -2.6440    1.3675    0.6901 O   0  0  0  0  0  0  0  0  0  0  0  0
   -2.3625   -0.9612   -0.1707 C   0  0  0  0  0  0  0  0  0  0  0  0
   -2.9888   -2.1401   -0.4027 F   0  0  0  0  0  0  0  0  0  0  0  0
   -1.5049   -0.4370   -1.3261 C   0  0  0  0  0  0  0  0  0  0  0  0
   -0.6294    0.1076   -0.3035 N   0  0  0  0  0  0  0  0  0  0  0  0
    0.7627    0.1716   -0.6707 C   0  0  0  0  0  0  0  0  0  0  0  0
    1.5385    0.7531    0.4807 C   0  0  1  0  0  0  0  0  0  0  0  0
    1.3987   -0.0368    1.6133 O   0  0  0  0  0  0  0  0  0  0  0  0
    3.0028    0.8589    0.1550 C   0  0  0  0  0  0  0  0  0  0  0  0
    3.5736   -0.3742   -0.0928 O   0  0  0  0  0  0  0  0  0  0  0  0
   -0.9828   -1.0819    0.4881 C   0  0  0  0  0  0  0  0  0  0  0  0
   -3.2087    2.2099    0.7857 H   0  0  0  0  0  0  0  0  0  0  0  0
   -2.0716    0.2931   -1.9053 H   0  0  0  0  0  0  0  0  0  0  0  0
   -1.0416   -1.2711   -1.8981 H   0  0  0  0  0  0  0  0  0  0  0  0
    0.8662    0.7833   -1.5710 H   0  0  0  0  0  0  0  0  0  0  0  0
    1.0921   -0.8838   -0.8534 H   0  0  0  0  0  0  0  0  0  0  0  0
    1.1481    1.7576    0.7200 H   0  0  0  0  0  0  0  0  0  0  0  0
    2.0174   -0.8211    1.5784 H   0  0  0  0  0  0  0  0  0  0  0  0
    3.5395    1.3272    0.9951 H   0  0  0  0  0  0  0  0  0  0  0  0
    3.1283    1.5342   -0.7206 H   0  0  0  0  0  0  0  0  0  0  0  0
    4.3517   -0.2923   -0.6985 H   0  0  0  0  0  0  0  0  0  0  0  0
   -0.9676   -0.9435    1.5642 H   0  0  0  0  0  0  0  0  0  0  0  0
   -0.4557   -1.9459    0.0611 H   0  0  0  0  0  0  0  0  0  0  0  0
  1  2  2  0
  2  3  1  0
  2  4  1  0
  4  5  1  0
  4  6  1  0
  6  7  1  0
  7  8  1  0
  8  9  1  0
  9 10  1  0
  9 11  1  0
 11 12  1  0
  7 13  1  0
 13  4  1  0
  3 14  1  0
  6 15  1  0
  6 16  1  0
  8 17  1  0
  8 18  1  0
  9 19  1  1
 10 20  1  0
 11 21  1  0
 11 22  1  0
 12 23  1  0
 13 24  1  0
 13 25  1  0
M  END
$$$$

     RDKit          3D

 25 25  0  0  0  0  0  0  0  0999 V2000
    3.3430   -1.4588    1.2055 O   0  0  0  0  0  0  0  0  0  0  0  0
    3.3880   -0.4098    0.5324 C   0  0  0  0  0  0  0  0  0  0  0  0
    4.4852    0.4306    0.6480 O   0  0  0  0  0  0  0  0  0  0  0  0
    2.2994   -0.0690   -0.3673 C   0  0  0  0  0  0  0  0  0  0  0  0
    2.6030    0.0668   -1.7025 F   0  0  0  0  0  0  0  0  0  0  0  0
    1.4401    1.1206    0.0723 C   0  0  0  0  0  0  0  0  0  0  0  0
    0.3364    0.4300   -0.5721 N   0  0  0  0  0  0  0  0  0  0  0  0
   -0.9446    0.6502    0.0115 C   0  0  0  0  0  0  0  0  0  0  0  0
   -1.9574   -0.1594   -0.8089 C   0  0  1  0  0  0  0  0  0  0  0  0
   -1.5779   -1.4771   -0.7262 O   0  0  0  0  0  0  0  0  0  0  0  0
   -3.3344    0.0957   -0.2177 C   0  0  0  0  0  0  0  0  0  0  0  0
   -3.2888   -0.2742    1.1158 O   0  0  0  0  0  0  0  0  0  0  0  0
    0.9992   -0.8166   -0.1598 C   0  0  0  0  0  0  0  0  0  0  0  0
    5.4142    0.0469    0.8698 H   0  0  0  0  0  0  0  0  0  0  0  0
    1.3314    1.1456    1.1853 H   0  0  0  0  0  0  0  0  0  0  0  0
    1.6966    2.0685   -0.4103 H   0  0  0  0  0  0  0  0  0  0  0  0
   -1.1734    1.7502   -0.1013 H   0  0  0  0  0  0  0  0  0  0  0  0
   -1.0305    0.4346    1.0765 H   0  0  0  0  0  0  0  0  0  0  0  0
   -1.9663    0.1525   -1.8537 H   0  0  0  0  0  0  0  0  0  0  0  0
   -2.2800   -2.0810   -0.3753 H   0  0  0  0  0  0  0  0  0  0  0  0
   -4.0979   -0.4528   -0.7961 H   0  0  0  0  0  0  0  0  0  0  0  0
   -3.5264    1.1794   -0.3335 H   0  0  0  0  0  0  0  0  0  0  0  0
   -3.8588    0.3124    1.6995 H   0  0  0  0  0  0  0  0  0  0  0  0
    0.8210   -1.6719   -0.8153 H   0  0  0  0  0  0  0  0  0  0  0  0
    0.8790   -1.0136    0.9411 H   0  0  0  0  0  0  0  0  0  0  0  0
  1  2  2  0
  2  3  1  0
  2  4  1  0
  4  5  1  0
  4  6  1  0
  6  7  1  0
  7  8  1  0
  8  9  1  0
  9 10  1  0
  9 11  1  0
 11 12  1  0
  7 13  1  0
 13  4  1  0
  3 14  1  0
  6 15  1  0
  6 16  1  0
  8 17  1  0
  8 18  1  0
  9 19  1  6
 10 20  1  0
 11 21  1  0
 11 22  1  0
 12 23  1  0
 13 24  1  0
 13 25  1  0
M  END
$$$$
