
     RDKit          3D

 29 29  0  0  0  0  0  0  0  0999 V2000
   -2.0151   -0.2600    1.3203 C   0  0  0  0  0  0  0  0  0  0  0  0
   -1.7805    0.1573   -0.1364 C   0  0  1  0  0  0  0  0  0  0  0  0
   -2.0822    1.5830   -0.2072 C   0  0  0  0  0  0  0  0  0  0  0  0
   -3.1654    2.0660    0.2038 O   0  0  0  0  0  0  0  0  0  0  0  0
   -1.1724    2.4820   -0.7398 O   0  0  0  0  0  0  0  0  0  0  0  0
   -0.5845   -0.3295   -0.5794 N   0  0  0  0  0  0  0  0  0  0  0  0
   -0.5492   -1.7495   -0.5700 C   0  0  0  0  0  0  0  0  0  0  0  0
    0.6156    0.2774   -0.7497 C   0  0  2  0  0  0  0  0  0  0  0  0
    1.6637   -0.6396   -1.3391 C   0  0  0  0  0  0  0  0  0  0  0  0
    2.4499   -1.1733   -0.2760 N   0  0  0  0  0  0  0  0  0  0  0  0
    2.1406   -0.4773    0.9280 C   0  0  0  0  0  0  0  0  0  0  0  0
    1.4082    0.7727    0.4147 C   0  0  2  0  0  0  0  0  0  0  0  0
    0.8325    1.4772    1.3858 O   0  0  0  0  0  0  0  0  0  0  0  0
   -3.1300   -0.2580    1.4771 H   0  0  0  0  0  0  0  0  0  0  0  0
   -1.6280    0.4986    2.0240 H   0  0  0  0  0  0  0  0  0  0  0  0
   -1.5741   -1.2211    1.5713 H   0  0  0  0  0  0  0  0  0  0  0  0
   -2.6410   -0.3530   -0.6873 H   0  0  0  0  0  0  0  0  0  0  0  0
   -1.4366    3.4374   -1.0074 H   0  0  0  0  0  0  0  0  0  0  0  0
   -0.5188   -2.1703   -1.6222 H   0  0  0  0  0  0  0  0  0  0  0  0
    0.1847   -2.2143    0.0965 H   0  0  0  0  0  0  0  0  0  0  0  0
   -1.5370   -2.2027   -0.2132 H   0  0  0  0  0  0  0  0  0  0  0  0
    0.5449    1.1265   -1.5312 H   0  0  0  0  0  0  0  0  0  0  0  0
    1.2782   -1.3948   -2.0318 H   0  0  0  0  0  0  0  0  0  0  0  0
    2.3573   -0.0012   -1.9593 H   0  0  0  0  0  0  0  0  0  0  0  0
    2.5208   -2.1729   -0.1672 H   0  0  0  0  0  0  0  0  0  0  0  0
    1.5203   -0.9957    1.6565 H   0  0  0  0  0  0  0  0  0  0  0  0
    3.0703   -0.1069    1.4537 H   0  0  0  0  0  0  0  0  0  0  0  0
    2.2415    1.3969   -0.0342 H   0  0  0  0  0  0  0  0  0  0  0  0
    0.9863    2.4453    1.3198 H   0  0  0  0  0  0  0  0  0  0  0  0
  1  2  1  0
  2  3  1  0
  3  4  2  0
  3  5  1  0
  2  6  1  0
  6  7  1  0
  6  8  1  0
  8  9  1  0
  9 10  1  0
 10 11  1  0
 11 12  1  0
 12 13  1  0
 12  8  1  0
  1 14  1  0
  1 15  1  0
  1 16  1  0
  2 17  1  6
  5 18  1  0
  7 19  1  0
  7 20  1  0
  7 21  1  0
  8 22  1  6
  9 23  1  0
  9 24  1  0
 10 25  1  0
 11 26  1  0
 11 27  1  0
 12 28  1  6
 13 29  1  0
M  END
$$$$

     RDKit          3D

 29 29  0  0  0  0  0  0  0  0999 V2000
    1.7941    1.8456    0.1098 C   0  0  0  0  0  0  0  0  0  0  0  0
    1.5693    0.5101   -0.5756 C   0  0  1  0  0  0  0  0  0  0  0  0
    2.8831   -0.2171   -0.4111 C   0  0  0  0  0  0  0  0  0  0  0  0
    3.5802   -0.4946   -1.4283 O   0  0  0  0  0  0  0  0  0  0  0  0
    3.3477   -0.5823    0.8265 O   0  0  0  0  0  0  0  0  0  0  0  0
    0.5760   -0.2879    0.1232 N   0  0  0  0  0  0  0  0  0  0  0  0
    0.8518   -1.6510   -0.0289 C   0  0  0  0  0  0  0  0  0  0  0  0
   -0.7355    0.1791    0.0904 C   0  0  2  0  0  0  0  0  0  0  0  0
   -1.4833    0.2706    1.4030 C   0  0  0  0  0  0  0  0  0  0  0  0
   -2.7240    0.9017    0.9271 N   0  0  0  0  0  0  0  0  0  0  0  0
   -2.9636    0.4049   -0.3992 C   0  0  0  0  0  0  0  0  0  0  0  0
   -1.7503   -0.4674   -0.7722 C   0  0  2  0  0  0  0  0  0  0  0  0
   -2.1202   -1.7403   -0.3670 O   0  0  0  0  0  0  0  0  0  0  0  0
    1.3893    1.8896    1.1226 H   0  0  0  0  0  0  0  0  0  0  0  0
    1.3618    2.6550   -0.4943 H   0  0  0  0  0  0  0  0  0  0  0  0
    2.9056    2.0775    0.1227 H   0  0  0  0  0  0  0  0  0  0  0  0
    1.3251    0.6422   -1.6294 H   0  0  0  0  0  0  0  0  0  0  0  0
    4.0334   -1.2743    0.9576 H   0  0  0  0  0  0  0  0  0  0  0  0
    1.2484   -1.8296   -1.0608 H   0  0  0  0  0  0  0  0  0  0  0  0
    1.6500   -1.9681    0.6661 H   0  0  0  0  0  0  0  0  0  0  0  0
    0.0222   -2.3599    0.1754 H   0  0  0  0  0  0  0  0  0  0  0  0
   -0.6774    1.2587   -0.2855 H   0  0  0  0  0  0  0  0  0  0  0  0
   -1.8080   -0.7547    1.7105 H   0  0  0  0  0  0  0  0  0  0  0  0
   -0.9711    0.8262    2.1724 H   0  0  0  0  0  0  0  0  0  0  0  0
   -2.5761    1.9298    0.8532 H   0  0  0  0  0  0  0  0  0  0  0  0
   -3.1285    1.2058   -1.1515 H   0  0  0  0  0  0  0  0  0  0  0  0
   -3.8912   -0.1918   -0.3846 H   0  0  0  0  0  0  0  0  0  0  0  0
   -1.5208   -0.3973   -1.8566 H   0  0  0  0  0  0  0  0  0  0  0  0
   -2.1878   -2.3807   -1.1213 H   0  0  0  0  0  0  0  0  0  0  0  0
  1  2  1  0
  2  3  1  0
  3  4  2  0
  3  5  1  0
  2  6  1  0
  6  7  1  0
  6  8  1  0
  8  9  1  0
  9 10  1  0
 10 11  1  0
 11 12  1  0
 12 13  1  0
 12  8  1  0
  1 14  1  0
  1 15  1  0
  1 16  1  0
  2 17  1  6
  5 18  1  0
  7 19  1  0
  7 20  1  0
  7 21  1  0
  8 22  1  6
  9 23  1  0
  9 24  1  0
 10 25  1  0
 11 26  1  0
 11 27  1  0
 12 28  1  6
 13 29  1  0
M  END
$$$$

     RDKit          3D

 29 29  0  0  0  0  0  0  0  0999 V2000
    1.9863    1.5368    0.1342 C   0  0  0  0  0  0  0  0  0  0  0  0
    1.6917    0.2551   -0.5473 C   0  0  1  0  0  0  0  0  0  0  0  0
    2.3343   -0.8324    0.2340 C   0  0  0  0  0  0  0  0  0  0  0  0
    1.6876   -1.8185    0.6190 O   0  0  0  0  0  0  0  0  0  0  0  0
    3.6918   -0.7404    0.5393 O   0  0  0  0  0  0  0  0  0  0  0  0
    0.3299   -0.0541   -0.8061 N   0  0  0  0  0  0  0  0  0  0  0  0
    0.1534   -1.3485   -1.3147 C   0  0  0  0  0  0  0  0  0  0  0  0
   -0.6388    0.5880   -0.0412 C   0  0  2  0  0  0  0  0  0  0  0  0
   -0.7098    0.3458    1.4158 C   0  0  0  0  0  0  0  0  0  0  0  0
   -1.8454   -0.5509    1.5549 N   0  0  0  0  0  0  0  0  0  0  0  0
   -2.8576    0.1594    0.7683 C   0  0  0  0  0  0  0  0  0  0  0  0
   -2.0603    0.4382   -0.5182 C   0  0  2  0  0  0  0  0  0  0  0  0
   -2.2871   -0.5771   -1.4070 O   0  0  0  0  0  0  0  0  0  0  0  0
    1.4696    2.4267   -0.2643 H   0  0  0  0  0  0  0  0  0  0  0  0
    3.0832    1.7554   -0.0495 H   0  0  0  0  0  0  0  0  0  0  0  0
    1.9115    1.4172    1.2167 H   0  0  0  0  0  0  0  0  0  0  0  0
    2.1953    0.2838   -1.5695 H   0  0  0  0  0  0  0  0  0  0  0  0
    4.1241   -1.4066    1.1673 H   0  0  0  0  0  0  0  0  0  0  0  0
    1.1863   -1.7332   -1.6134 H   0  0  0  0  0  0  0  0  0  0  0  0
   -0.3843   -1.3718   -2.3057 H   0  0  0  0  0  0  0  0  0  0  0  0
   -0.2444   -2.1260   -0.6400 H   0  0  0  0  0  0  0  0  0  0  0  0
   -0.4283    1.7225   -0.1294 H   0  0  0  0  0  0  0  0  0  0  0  0
   -1.0371    1.2879    1.9542 H   0  0  0  0  0  0  0  0  0  0  0  0
    0.1737    0.0154    1.9375 H   0  0  0  0  0  0  0  0  0  0  0  0
   -1.7263   -1.4702    1.1164 H   0  0  0  0  0  0  0  0  0  0  0  0
   -3.1543    1.1133    1.2466 H   0  0  0  0  0  0  0  0  0  0  0  0
   -3.6876   -0.5210    0.5336 H   0  0  0  0  0  0  0  0  0  0  0  0
   -2.4751    1.3945   -0.9338 H   0  0  0  0  0  0  0  0  0  0  0  0
   -2.4824   -0.1890   -2.2981 H   0  0  0  0  0  0  0  0  0  0  0  0
  1  2  1  0
  2  3  1  0
  3  4  2  0
  3  5  1  0
  2  6  1  0
  6  7  1  0
  6  8  1  0
  8  9  1  0
  9 10  1  0
 10 11  1  0
 11 12  1  0
 12 13  1  0
 12  8  1  0
  1 14  1  0
  1 15  1  0
  1 16  1  0
  2 17  1  6
  5 18  1  0
  7 19  1  0
  7 20  1  0
  7 21  1  0
  8 22  1  1
  9 23  1  0
  9 24  1  0
 10 25  1  0
 11 26  1  0
 11 27  1  0
 12 28  1  6
 13 29  1  0
M  END
$$$$

     RDKit          3D

 29 29  0  0  0  0  0  0  0  0999 V2000
    2.2485   -0.7866   -0.8505 C   0  0  0  0  0  0  0  0  0  0  0  0
    1.6696   -0.3680    0.4766 C   0  0  1  0  0  0  0  0  0  0  0  0
    2.2496    0.8746    0.9102 C   0  0  0  0  0  0  0  0  0  0  0  0
    1.5662    1.8184    1.4384 O   0  0  0  0  0  0  0  0  0  0  0  0
    3.6041    1.1333    0.7821 O   0  0  0  0  0  0  0  0  0  0  0  0
    0.2840   -0.5651    0.5119 N   0  0  0  0  0  0  0  0  0  0  0  0
    0.0486   -2.0154    0.3991 C   0  0  0  0  0  0  0  0  0  0  0  0
   -0.5805    0.0263   -0.4014 C   0  0  2  0  0  0  0  0  0  0  0  0
   -0.7400    1.4610   -0.5729 C   0  0  0  0  0  0  0  0  0  0  0  0
   -1.5533    1.9469    0.5383 N   0  0  0  0  0  0  0  0  0  0  0  0
   -2.6604    0.9803    0.4500 C   0  0  0  0  0  0  0  0  0  0  0  0
   -2.0050   -0.3416    0.0819 C   0  0  2  0  0  0  0  0  0  0  0  0
   -1.9769   -1.0739    1.2656 O   0  0  0  0  0  0  0  0  0  0  0  0
    3.1471   -0.1379   -1.0777 H   0  0  0  0  0  0  0  0  0  0  0  0
    2.6537   -1.8180   -0.8645 H   0  0  0  0  0  0  0  0  0  0  0  0
    1.5570   -0.5961   -1.6975 H   0  0  0  0  0  0  0  0  0  0  0  0
    2.0832   -1.1554    1.1977 H   0  0  0  0  0  0  0  0  0  0  0  0
    3.9528    2.0748    0.6420 H   0  0  0  0  0  0  0  0  0  0  0  0
   -0.1049   -2.4399    1.4082 H   0  0  0  0  0  0  0  0  0  0  0  0
    0.9472   -2.5376   -0.0039 H   0  0  0  0  0  0  0  0  0  0  0  0
   -0.7569   -2.2343   -0.3192 H   0  0  0  0  0  0  0  0  0  0  0  0
   -0.4757   -0.4661   -1.3915 H   0  0  0  0  0  0  0  0  0  0  0  0
   -1.4403    1.5983   -1.4632 H   0  0  0  0  0  0  0  0  0  0  0  0
    0.1048    2.0826   -0.8280 H   0  0  0  0  0  0  0  0  0  0  0  0
   -1.9873    2.8570    0.2180 H   0  0  0  0  0  0  0  0  0  0  0  0
   -3.4118    1.2787   -0.2862 H   0  0  0  0  0  0  0  0  0  0  0  0
   -3.1408    0.9700    1.4390 H   0  0  0  0  0  0  0  0  0  0  0  0
   -2.6049   -0.8008   -0.7129 H   0  0  0  0  0  0  0  0  0  0  0  0
   -2.6777   -1.7655    1.2085 H   0  0  0  0  0  0  0  0  0  0  0  0
  1  2  1  0
  2  3  1  0
  3  4  2  0
  3  5  1  0
  2  6  1  0
  6  7  1  0
  6  8  1  0
  8  9  1  0
  9 10  1  0
 10 11  1  0
 11 12  1  0
 12 13  1  0
 12  8  1  0
  1 14  1  0
  1 15  1  0
  1 16  1  0
  2 17  1  1
  5 18  1  0
  7 19  1  0
  7 20  1  0
  7 21  1  0
  8 22  1  6
  9 23  1  0
  9 24  1  0
 10 25  1  0
 11 26  1  0
 11 27  1  0
 12 28  1  6
 13 29  1  0
M  END
$$$$

     RDKit          3D

 29 29  0  0  0  0  0  0  0  0999 V2000
   -2.0561    0.0013    1.4844 C   0  0  0  0  0  0  0  0  0  0  0  0
   -1.3790   -0.3668    0.1759 C   0  0  1  0  0  0  0  0  0  0  0  0
   -2.4365   -0.5671   -0.8423 C   0  0  0  0  0  0  0  0  0  0  0  0
   -2.2040   -0.1436   -2.0428 O   0  0  0  0  0  0  0  0  0  0  0  0
   -3.6470   -1.1477   -0.6441 O   0  0  0  0  0  0  0  0  0  0  0  0
   -0.4158    0.5338   -0.2900 N   0  0  0  0  0  0  0  0  0  0  0  0
   -0.9147    1.8415   -0.5634 C   0  0  0  0  0  0  0  0  0  0  0  0
    0.8939    0.5177    0.1300 C   0  0  2  0  0  0  0  0  0  0  0  0
    1.9221    0.7342   -1.0048 C   0  0  0  0  0  0  0  0  0  0  0  0
    3.0917   -0.0482   -0.6463 N   0  0  0  0  0  0  0  0  0  0  0  0
    2.8835   -0.4345    0.7542 C   0  0  0  0  0  0  0  0  0  0  0  0
    1.4145   -0.8115    0.6479 C   0  0  2  0  0  0  0  0  0  0  0  0
    1.3265   -1.7514   -0.3648 O   0  0  0  0  0  0  0  0  0  0  0  0
   -1.3322    0.3221    2.2719 H   0  0  0  0  0  0  0  0  0  0  0  0
   -2.5046   -0.9439    1.8940 H   0  0  0  0  0  0  0  0  0  0  0  0
   -2.9046    0.7085    1.3498 H   0  0  0  0  0  0  0  0  0  0  0  0
   -0.9593   -1.4056    0.3567 H   0  0  0  0  0  0  0  0  0  0  0  0
   -4.1925   -1.6653   -1.3174 H   0  0  0  0  0  0  0  0  0  0  0  0
   -0.7844    2.5120    0.3408 H   0  0  0  0  0  0  0  0  0  0  0  0
   -0.2795    2.3313   -1.3324 H   0  0  0  0  0  0  0  0  0  0  0  0
   -1.9619    1.8467   -0.9273 H   0  0  0  0  0  0  0  0  0  0  0  0
    1.1509    1.2799    0.8861 H   0  0  0  0  0  0  0  0  0  0  0  0
    2.2003    1.7873   -1.1023 H   0  0  0  0  0  0  0  0  0  0  0  0
    1.4661    0.3822   -1.9528 H   0  0  0  0  0  0  0  0  0  0  0  0
    3.0848   -0.9396   -1.1807 H   0  0  0  0  0  0  0  0  0  0  0  0
    3.5153   -1.2777    1.0551 H   0  0  0  0  0  0  0  0  0  0  0  0
    2.9673    0.4625    1.3736 H   0  0  0  0  0  0  0  0  0  0  0  0
    0.9787   -1.1089    1.5925 H   0  0  0  0  0  0  0  0  0  0  0  0
    1.0766   -2.6491   -0.1018 H   0  0  0  0  0  0  0  0  0  0  0  0
  1  2  1  0
  2  3  1  0
  3  4  2  0
  3  5  1  0
  2  6  1  0
  6  7  1  0
  6  8  1  0
  8  9  1  0
  9 10  1  0
 10 11  1  0
 11 12  1  0
 12 13  1  0
 12  8  1  0
  1 14  1  0
  1 15  1  0
  1 16  1  0
  2 17  1  1
  5 18  1  0
  7 19  1  0
  7 20  1  0
  7 21  1  0
  8 22  1  1
  9 23  1  0
  9 24  1  0
 10 25  1  0
 11 26  1  0
 11 27  1  0
 12 28  1  1
 13 29  1  0
M  END
$$$$

     RDKit          3D

 29 29  0  0  0  0  0  0  0  0999 V2000
    2.4166   -1.2879    1.1104 C   0  0  0  0  0  0  0  0  0  0  0  0
    1.5267   -0.1510    0.7538 C   0  0  1  0  0  0  0  0  0  0  0  0
    2.3168    1.0305    0.3166 C   0  0  0  0  0  0  0  0  0  0  0  0
    3.2652    1.3893    1.0610 O   0  0  0  0  0  0  0  0  0  0  0  0
    2.0568    1.7335   -0.8477 O   0  0  0  0  0  0  0  0  0  0  0  0
    0.4674   -0.4882   -0.1434 N   0  0  0  0  0  0  0  0  0  0  0  0
    0.8636   -0.9500   -1.4273 C   0  0  0  0  0  0  0  0  0  0  0  0
   -0.5980    0.4626   -0.1345 C   0  0  2  0  0  0  0  0  0  0  0  0
   -1.2438    0.5301    1.2234 C   0  0  0  0  0  0  0  0  0  0  0  0
   -2.6751    0.5473    1.0208 N   0  0  0  0  0  0  0  0  0  0  0  0
   -2.9084    0.7476   -0.3771 C   0  0  0  0  0  0  0  0  0  0  0  0
   -1.7290    0.0461   -1.0157 C   0  0  2  0  0  0  0  0  0  0  0  0
   -1.9885   -1.3073   -0.9988 O   0  0  0  0  0  0  0  0  0  0  0  0
    2.3015   -1.6342    2.1777 H   0  0  0  0  0  0  0  0  0  0  0  0
    2.3124   -2.1830    0.4876 H   0  0  0  0  0  0  0  0  0  0  0  0
    3.5062   -0.9992    1.0457 H   0  0  0  0  0  0  0  0  0  0  0  0
    1.0249    0.1779    1.7148 H   0  0  0  0  0  0  0  0  0  0  0  0
    2.7692    2.2471   -1.3384 H   0  0  0  0  0  0  0  0  0  0  0  0
    0.5237   -2.0100   -1.5299 H   0  0  0  0  0  0  0  0  0  0  0  0
    0.2647   -0.3903   -2.2037 H   0  0  0  0  0  0  0  0  0  0  0  0
    1.9150   -0.8150   -1.6920 H   0  0  0  0  0  0  0  0  0  0  0  0
   -0.2939    1.4856   -0.4091 H   0  0  0  0  0  0  0  0  0  0  0  0
   -0.9889    1.4748    1.7598 H   0  0  0  0  0  0  0  0  0  0  0  0
   -0.9574   -0.3220    1.8628 H   0  0  0  0  0  0  0  0  0  0  0  0
   -3.1356   -0.3008    1.3967 H   0  0  0  0  0  0  0  0  0  0  0  0
   -3.8296    0.2147   -0.6877 H   0  0  0  0  0  0  0  0  0  0  0  0
   -2.9505    1.8192   -0.6653 H   0  0  0  0  0  0  0  0  0  0  0  0
   -1.6094    0.4515   -2.0367 H   0  0  0  0  0  0  0  0  0  0  0  0
   -2.6226   -1.5188   -0.2929 H   0  0  0  0  0  0  0  0  0  0  0  0
  1  2  1  0
  2  3  1  0
  3  4  2  0
  3  5  1  0
  2  6  1  0
  6  7  1  0
  6  8  1  0
  8  9  1  0
  9 10  1  0
 10 11  1  0
 11 12  1  0
 12 13  1  0
 12  8  1  0
  1 14  1  0
  1 15  1  0
  1 16  1  0
  2 17  1  1
  5 18  1  0
  7 19  1  0
  7 20  1  0
  7 21  1  0
  8 22  1  6
  9 23  1  0
  9 24  1  0
 10 25  1  0
 11 26  1  0
 11 27  1  0
 12 28  1  6
 13 29  1  0
M  END
$$$$

     RDKit          3D

 29 29  0  0  0  0  0  0  0  0999 V2000
   -2.7280   -1.2934    0.0370 C   0  0  0  0  0  0  0  0  0  0  0  0
   -1.7707   -0.0986   -0.2408 C   0  0  1  0  0  0  0  0  0  0  0  0
   -2.1008    0.8973    0.7652 C   0  0  0  0  0  0  0  0  0  0  0  0
   -1.6466    0.7859    1.9400 O   0  0  0  0  0  0  0  0  0  0  0  0
   -2.9028    1.9932    0.5080 O   0  0  0  0  0  0  0  0  0  0  0  0
   -0.4630   -0.6063   -0.3246 N   0  0  0  0  0  0  0  0  0  0  0  0
   -0.3918   -1.4601   -1.5135 C   0  0  0  0  0  0  0  0  0  0  0  0
    0.6254    0.3130   -0.4061 C   0  0  2  0  0  0  0  0  0  0  0  0
    1.7842   -0.2598   -1.2265 C   0  0  0  0  0  0  0  0  0  0  0  0
    2.7972    0.7763   -0.9872 N   0  0  0  0  0  0  0  0  0  0  0  0
    2.7171    1.0628    0.4163 C   0  0  0  0  0  0  0  0  0  0  0  0
    1.3726    0.5193    0.9008 C   0  0  2  0  0  0  0  0  0  0  0  0
    1.6346   -0.7333    1.4417 O   0  0  0  0  0  0  0  0  0  0  0  0
   -2.9017   -1.3058    1.1722 H   0  0  0  0  0  0  0  0  0  0  0  0
   -2.3031   -2.2588   -0.1753 H   0  0  0  0  0  0  0  0  0  0  0  0
   -3.7276   -1.0955   -0.3794 H   0  0  0  0  0  0  0  0  0  0  0  0
   -2.0959    0.2259   -1.2753 H   0  0  0  0  0  0  0  0  0  0  0  0
   -3.1263    2.7225    1.1666 H   0  0  0  0  0  0  0  0  0  0  0  0
    0.4862   -2.0944   -1.4238 H   0  0  0  0  0  0  0  0  0  0  0  0
   -1.3290   -1.9786   -1.7239 H   0  0  0  0  0  0  0  0  0  0  0  0
   -0.2982   -0.7401   -2.3921 H   0  0  0  0  0  0  0  0  0  0  0  0
    0.3434    1.3165   -0.8146 H   0  0  0  0  0  0  0  0  0  0  0  0
    1.6004   -0.3528   -2.2862 H   0  0  0  0  0  0  0  0  0  0  0  0
    2.1222   -1.1690   -0.6974 H   0  0  0  0  0  0  0  0  0  0  0  0
    2.5909    1.5887   -1.5950 H   0  0  0  0  0  0  0  0  0  0  0  0
    3.5726    0.6052    0.9207 H   0  0  0  0  0  0  0  0  0  0  0  0
    2.7188    2.1668    0.5421 H   0  0  0  0  0  0  0  0  0  0  0  0
    0.8972    1.2255    1.5891 H   0  0  0  0  0  0  0  0  0  0  0  0
    2.5228   -0.7523    1.8632 H   0  0  0  0  0  0  0  0  0  0  0  0
  1  2  1  0
  2  3  1  0
  3  4  2  0
  3  5  1  0
  2  6  1  0
  6  7  1  0
  6  8  1  0
  8  9  1  0
  9 10  1  0
 10 11  1  0
 11 12  1  0
 12 13  1  0
 12  8  1  0
  1 14  1  0
  1 15  1  0
  1 16  1  0
  2 17  1  6
  5 18  1  0
  7 19  1  0
  7 20  1  0
  7 21  1  0
  8 22  1  6
  9 23  1  0
  9 24  1  0
 10 25  1  0
 11 26  1  0
 11 27  1  0
 12 28  1  1
 13 29  1  0
M  END
$$$$

     RDKit          3D

 29 29  0  0  0  0  0  0  0  0999 V2000
   -2.3280    0.4194   -1.2030 C   0  0  0  0  0  0  0  0  0  0  0  0
   -1.1986    0.4357   -0.1407 C   0  0  1  0  0  0  0  0  0  0  0  0
   -1.9288    0.5955    1.1209 C   0  0  0  0  0  0  0  0  0  0  0  0
   -1.9618   -0.2965    1.9759 O   0  0  0  0  0  0  0  0  0  0  0  0
   -2.5947    1.7811    1.3526 O   0  0  0  0  0  0  0  0  0  0  0  0
   -0.4463   -0.7213   -0.3362 N   0  0  0  0  0  0  0  0  0  0  0  0
   -1.1250   -1.9690   -0.1462 C   0  0  0  0  0  0  0  0  0  0  0  0
    0.9398   -0.7756   -0.1269 C   0  0  2  0  0  0  0  0  0  0  0  0
    1.4324   -0.5655    1.2706 C   0  0  0  0  0  0  0  0  0  0  0  0
    2.6342    0.2571    1.1923 N   0  0  0  0  0  0  0  0  0  0  0  0
    2.2827    1.1557    0.0839 C   0  0  0  0  0  0  0  0  0  0  0  0
    1.7725    0.1753   -0.9302 C   0  0  2  0  0  0  0  0  0  0  0  0
    1.1153    0.7307   -2.0044 O   0  0  0  0  0  0  0  0  0  0  0  0
   -2.7790    1.4385   -1.1438 H   0  0  0  0  0  0  0  0  0  0  0  0
   -3.1154   -0.2788   -0.8952 H   0  0  0  0  0  0  0  0  0  0  0  0
   -1.9404    0.2730   -2.2135 H   0  0  0  0  0  0  0  0  0  0  0  0
   -0.6682    1.3790   -0.3583 H   0  0  0  0  0  0  0  0  0  0  0  0
   -2.8293    2.1295    2.2926 H   0  0  0  0  0  0  0  0  0  0  0  0
   -2.1274   -2.0304   -0.5664 H   0  0  0  0  0  0  0  0  0  0  0  0
   -0.5113   -2.7529   -0.6449 H   0  0  0  0  0  0  0  0  0  0  0  0
   -1.1116   -2.1810    0.9338 H   0  0  0  0  0  0  0  0  0  0  0  0
    1.2686   -1.8088   -0.4303 H   0  0  0  0  0  0  0  0  0  0  0  0
    1.7758   -1.5195    1.7437 H   0  0  0  0  0  0  0  0  0  0  0  0
    0.7493   -0.0864    1.9648 H   0  0  0  0  0  0  0  0  0  0  0  0
    3.4785   -0.2695    0.9332 H   0  0  0  0  0  0  0  0  0  0  0  0
    3.2147    1.6169   -0.3070 H   0  0  0  0  0  0  0  0  0  0  0  0
    1.5260    1.8759    0.3775 H   0  0  0  0  0  0  0  0  0  0  0  0
    2.6895   -0.3369   -1.3441 H   0  0  0  0  0  0  0  0  0  0  0  0
    1.7865    1.3288   -2.4505 H   0  0  0  0  0  0  0  0  0  0  0  0
  1  2  1  0
  2  3  1  0
  3  4  2  0
  3  5  1  0
  2  6  1  0
  6  7  1  0
  6  8  1  0
  8  9  1  0
  9 10  1  0
 10 11  1  0
 11 12  1  0
 12 13  1  0
 12  8  1  0
  1 14  1  0
  1 15  1  0
  1 16  1  0
  2 17  1  6
  5 18  1  0
  7 19  1  0
  7 20  1  0
  7 21  1  0
  8 22  1  6
  9 23  1  0
  9 24  1  0
 10 25  1  0
 11 26  1  0
 11 27  1  0
 12 28  1  6
 13 29  1  0
M  END
$$$$
