
     RDKit          3D

 27 27  0  0  0  0  0  0  0  0999 V2000
    5.4492   -0.4823    0.3268 C   0  0  0  0  0  0  0  0  0  0  0  0
    4.2821    0.1463   -0.1836 O   0  0  0  0  0  0  0  0  0  0  0  0
    2.9983   -0.2018    0.1981 C   0  0  0  0  0  0  0  0  0  0  0  0
    2.8683   -1.1183    1.0440 O   0  0  0  0  0  0  0  0  0  0  0  0
    1.8009    0.4716   -0.3596 C   0  0  0  0  0  0  0  0  0  0  0  0
    0.5867   -0.0094    0.2787 N   0  0  0  0  0  0  0  0  0  0  0  0
   -0.5396    0.5429   -0.3937 C   0  0  0  0  0  0  0  0  0  0  0  0
   -1.8448    0.2501    0.2560 C   0  0  1  0  0  0  0  0  0  0  0  0
   -3.0227    0.8469   -0.5145 C   0  0  0  0  0  0  0  0  0  0  0  0
   -4.1689    0.2187    0.2971 C   0  0  0  0  0  0  0  0  0  0  0  0
   -3.6654   -1.1576    0.3665 N   0  0  0  0  0  0  0  0  0  0  0  0
   -2.2372   -1.1599    0.3286 C   0  0  0  0  0  0  0  0  0  0  0  0
   -1.5513   -2.2061    0.3572 O   0  0  0  0  0  0  0  0  0  0  0  0
    6.3139   -0.1641   -0.2914 H   0  0  0  0  0  0  0  0  0  0  0  0
    5.3780   -1.5919    0.2751 H   0  0  0  0  0  0  0  0  0  0  0  0
    5.6804   -0.1881    1.3746 H   0  0  0  0  0  0  0  0  0  0  0  0
    1.6883    0.3115   -1.4471 H   0  0  0  0  0  0  0  0  0  0  0  0
    1.8820    1.5965   -0.2666 H   0  0  0  0  0  0  0  0  0  0  0  0
    0.5899    0.1912    1.3080 H   0  0  0  0  0  0  0  0  0  0  0  0
   -0.4409    1.6268   -0.5458 H   0  0  0  0  0  0  0  0  0  0  0  0
   -0.5414    0.0995   -1.4276 H   0  0  0  0  0  0  0  0  0  0  0  0
   -1.9157    0.6963    1.2934 H   0  0  0  0  0  0  0  0  0  0  0  0
   -3.0417    1.9323   -0.4999 H   0  0  0  0  0  0  0  0  0  0  0  0
   -3.0018    0.3767   -1.5167 H   0  0  0  0  0  0  0  0  0  0  0  0
   -4.1359    0.6963    1.2907 H   0  0  0  0  0  0  0  0  0  0  0  0
   -5.1303    0.2686   -0.2217 H   0  0  0  0  0  0  0  0  0  0  0  0
   -4.2805   -1.9928    0.4349 H   0  0  0  0  0  0  0  0  0  0  0  0
  1  2  1  0
  2  3  1  0
  3  4  2  0
  3  5  1  0
  5  6  1  0
  6  7  1  0
  7  8  1  0
  8  9  1  0
  9 10  1  0
 10 11  1  0
 11 12  1  0
 12 13  2  0
 12  8  1  0
  1 14  1  0
  1 15  1  0
  1 16  1  0
  5 17  1  0
  5 18  1  0
  6 19  1  0
  7 20  1  0
  7 21  1  0
  8 22  1  1
  9 23  1  0
  9 24  1  0
 10 25  1  0
 10 26  1  0
 11 27  1  0
M  END
$$$$

     RDKit          3D

 27 27  0  0  0  0  0  0  0  0999 V2000
   -4.8313    0.6531   -0.3309 C   0  0  0  0  0  0  0  0  0  0  0  0
   -3.5864    0.1366   -0.7654 O   0  0  0  0  0  0  0  0  0  0  0  0
   -2.5734   -0.1702    0.1399 C   0  0  0  0  0  0  0  0  0  0  0  0
   -2.7491    0.0077    1.3483 O   0  0  0  0  0  0  0  0  0  0  0  0
   -1.2907   -0.7074   -0.3506 C   0  0  0  0  0  0  0  0  0  0  0  0
   -0.4161   -0.9359    0.7486 N   0  0  0  0  0  0  0  0  0  0  0  0
    0.8876   -1.4611    0.4143 C   0  0  0  0  0  0  0  0  0  0  0  0
    1.6442   -0.4095   -0.3068 C   0  0  1  0  0  0  0  0  0  0  0  0
    1.8064    0.8581    0.5570 C   0  0  0  0  0  0  0  0  0  0  0  0
    2.7634    1.6258   -0.3549 C   0  0  0  0  0  0  0  0  0  0  0  0
    3.7215    0.5488   -0.6533 N   0  0  0  0  0  0  0  0  0  0  0  0
    3.0645   -0.7043   -0.5397 C   0  0  0  0  0  0  0  0  0  0  0  0
    3.5728   -1.8415   -0.6194 O   0  0  0  0  0  0  0  0  0  0  0  0
   -4.6841    1.6321    0.1958 H   0  0  0  0  0  0  0  0  0  0  0  0
   -5.3153   -0.0259    0.4070 H   0  0  0  0  0  0  0  0  0  0  0  0
   -5.4746    0.8351   -1.2157 H   0  0  0  0  0  0  0  0  0  0  0  0
   -0.8571    0.0461   -1.0750 H   0  0  0  0  0  0  0  0  0  0  0  0
   -1.4865   -1.5967   -0.9723 H   0  0  0  0  0  0  0  0  0  0  0  0
   -0.8371   -1.2963    1.6082 H   0  0  0  0  0  0  0  0  0  0  0  0
    1.3922   -1.7070    1.3699 H   0  0  0  0  0  0  0  0  0  0  0  0
    0.7926   -2.3441   -0.2408 H   0  0  0  0  0  0  0  0  0  0  0  0
    1.1378   -0.0788   -1.2358 H   0  0  0  0  0  0  0  0  0  0  0  0
    2.3438    0.5555    1.4635 H   0  0  0  0  0  0  0  0  0  0  0  0
    0.8490    1.3680    0.7017 H   0  0  0  0  0  0  0  0  0  0  0  0
    2.1783    1.8329   -1.2644 H   0  0  0  0  0  0  0  0  0  0  0  0
    3.2195    2.4820    0.1295 H   0  0  0  0  0  0  0  0  0  0  0  0
    4.7281    0.6968   -0.9077 H   0  0  0  0  0  0  0  0  0  0  0  0
  1  2  1  0
  2  3  1  0
  3  4  2  0
  3  5  1  0
  5  6  1  0
  6  7  1  0
  7  8  1  0
  8  9  1  0
  9 10  1  0
 10 11  1  0
 11 12  1  0
 12 13  2  0
 12  8  1  0
  1 14  1  0
  1 15  1  0
  1 16  1  0
  5 17  1  0
  5 18  1  0
  6 19  1  0
  7 20  1  0
  7 21  1  0
  8 22  1  6
  9 23  1  0
  9 24  1  0
 10 25  1  0
 10 26  1  0
 11 27  1  0
M  END
$$$$

     RDKit          3D

 27 27  0  0  0  0  0  0  0  0999 V2000
    5.0963   -0.1211    0.7077 C   0  0  0  0  0  0  0  0  0  0  0  0
    3.7804    0.3046    0.5166 O   0  0  0  0  0  0  0  0  0  0  0  0
    2.7935   -0.4289   -0.1135 C   0  0  0  0  0  0  0  0  0  0  0  0
    3.0394   -1.5617   -0.5609 O   0  0  0  0  0  0  0  0  0  0  0  0
    1.4563    0.1876   -0.2274 C   0  0  0  0  0  0  0  0  0  0  0  0
    0.4839   -0.6398   -0.8915 N   0  0  0  0  0  0  0  0  0  0  0  0
   -0.7295    0.1031   -1.0274 C   0  0  0  0  0  0  0  0  0  0  0  0
   -1.4444    0.4045    0.2464 C   0  0  1  0  0  0  0  0  0  0  0  0
   -2.7107    1.1936   -0.0437 C   0  0  0  0  0  0  0  0  0  0  0  0
   -3.8438    0.2081   -0.0710 C   0  0  0  0  0  0  0  0  0  0  0  0
   -3.3099   -1.0542    0.3981 N   0  0  0  0  0  0  0  0  0  0  0  0
   -1.9813   -0.8292    0.8981 C   0  0  0  0  0  0  0  0  0  0  0  0
   -1.4006   -1.5547    1.7321 O   0  0  0  0  0  0  0  0  0  0  0  0
    5.8294    0.4891    0.1141 H   0  0  0  0  0  0  0  0  0  0  0  0
    5.3528    0.0699    1.7795 H   0  0  0  0  0  0  0  0  0  0  0  0
    5.2532   -1.1882    0.4339 H   0  0  0  0  0  0  0  0  0  0  0  0
    1.0767    0.3122    0.8279 H   0  0  0  0  0  0  0  0  0  0  0  0
    1.4886    1.1969   -0.6711 H   0  0  0  0  0  0  0  0  0  0  0  0
    0.8183   -1.0007   -1.7978 H   0  0  0  0  0  0  0  0  0  0  0  0
   -1.4550   -0.4413   -1.6960 H   0  0  0  0  0  0  0  0  0  0  0  0
   -0.5446    1.0844   -1.5468 H   0  0  0  0  0  0  0  0  0  0  0  0
   -0.8234    0.9397    0.9610 H   0  0  0  0  0  0  0  0  0  0  0  0
   -2.6134    1.6704   -1.0343 H   0  0  0  0  0  0  0  0  0  0  0  0
   -2.8607    2.0029    0.7011 H   0  0  0  0  0  0  0  0  0  0  0  0
   -4.2217    0.0533   -1.1236 H   0  0  0  0  0  0  0  0  0  0  0  0
   -4.7294    0.5521    0.5104 H   0  0  0  0  0  0  0  0  0  0  0  0
   -3.8003   -1.9527    0.3787 H   0  0  0  0  0  0  0  0  0  0  0  0
  1  2  1  0
  2  3  1  0
  3  4  2  0
  3  5  1  0
  5  6  1  0
  6  7  1  0
  7  8  1  0
  8  9  1  0
  9 10  1  0
 10 11  1  0
 11 12  1  0
 12 13  2  0
 12  8  1  0
  1 14  1  0
  1 15  1  0
  1 16  1  0
  5 17  1  0
  5 18  1  0
  6 19  1  0
  7 20  1  0
  7 21  1  0
  8 22  1  1
  9 23  1  0
  9 24  1  0
 10 25  1  0
 10 26  1  0
 11 27  1  0
M  END
$$$$

     RDKit          3D

 27 27  0  0  0  0  0  0  0  0999 V2000
    4.6905    1.0435   -0.3042 C   0  0  0  0  0  0  0  0  0  0  0  0
    3.9565   -0.1400   -0.1528 O   0  0  0  0  0  0  0  0  0  0  0  0
    2.5782   -0.1127    0.0847 C   0  0  0  0  0  0  0  0  0  0  0  0
    1.9887    0.9913    0.1610 O   0  0  0  0  0  0  0  0  0  0  0  0
    1.8032   -1.3662    0.2500 C   0  0  0  0  0  0  0  0  0  0  0  0
    0.4183   -1.1449    0.4999 N   0  0  0  0  0  0  0  0  0  0  0  0
   -0.3305   -0.6172   -0.6175 C   0  0  0  0  0  0  0  0  0  0  0  0
   -1.7642   -0.5174   -0.1752 C   0  0  1  0  0  0  0  0  0  0  0  0
   -1.9809    0.4024    1.0037 C   0  0  0  0  0  0  0  0  0  0  0  0
   -3.5142    0.4294    1.0174 C   0  0  0  0  0  0  0  0  0  0  0  0
   -3.7802    0.5664   -0.4171 N   0  0  0  0  0  0  0  0  0  0  0  0
   -2.6789    0.0722   -1.1669 C   0  0  0  0  0  0  0  0  0  0  0  0
   -2.4980    0.1130   -2.3974 O   0  0  0  0  0  0  0  0  0  0  0  0
    5.2157    1.0596   -1.2737 H   0  0  0  0  0  0  0  0  0  0  0  0
    5.4366    1.1152    0.5299 H   0  0  0  0  0  0  0  0  0  0  0  0
    4.0556    1.9363   -0.2446 H   0  0  0  0  0  0  0  0  0  0  0  0
    1.9060   -2.0014   -0.6712 H   0  0  0  0  0  0  0  0  0  0  0  0
    2.2366   -1.9431    1.0948 H   0  0  0  0  0  0  0  0  0  0  0  0
    0.2898   -0.5297    1.3406 H   0  0  0  0  0  0  0  0  0  0  0  0
    0.0408    0.3714   -0.9453 H   0  0  0  0  0  0  0  0  0  0  0  0
   -0.2359   -1.3542   -1.4385 H   0  0  0  0  0  0  0  0  0  0  0  0
   -2.1898   -1.5326    0.0617 H   0  0  0  0  0  0  0  0  0  0  0  0
   -1.6552    1.4177    0.6892 H   0  0  0  0  0  0  0  0  0  0  0  0
   -1.5542    0.0530    1.9474 H   0  0  0  0  0  0  0  0  0  0  0  0
   -3.8664   -0.5511    1.3240 H   0  0  0  0  0  0  0  0  0  0  0  0
   -3.9146    1.2701    1.5928 H   0  0  0  0  0  0  0  0  0  0  0  0
   -4.6535    0.9688   -0.7815 H   0  0  0  0  0  0  0  0  0  0  0  0
  1  2  1  0
  2  3  1  0
  3  4  2  0
  3  5  1  0
  5  6  1  0
  6  7  1  0
  7  8  1  0
  8  9  1  0
  9 10  1  0
 10 11  1  0
 11 12  1  0
 12 13  2  0
 12  8  1  0
  1 14  1  0
  1 15  1  0
  1 16  1  0
  5 17  1  0
  5 18  1  0
  6 19  1  0
  7 20  1  0
  7 21  1  0
  8 22  1  1
  9 23  1  0
  9 24  1  0
 10 25  1  0
 10 26  1  0
 11 27  1  0
M  END
$$$$

     RDKit          3D

 27 27  0  0  0  0  0  0  0  0999 V2000
    4.7869    0.3218    0.8770 C   0  0  0  0  0  0  0  0  0  0  0  0
    3.8163   -0.7320    0.9351 O   0  0  0  0  0  0  0  0  0  0  0  0
    2.6074   -0.5664    0.2923 C   0  0  0  0  0  0  0  0  0  0  0  0
    2.4467    0.5523   -0.3244 O   0  0  0  0  0  0  0  0  0  0  0  0
    1.5164   -1.5989    0.2911 C   0  0  0  0  0  0  0  0  0  0  0  0
    0.3572   -1.1169   -0.3908 N   0  0  0  0  0  0  0  0  0  0  0  0
   -0.3395   -0.0725    0.2654 C   0  0  0  0  0  0  0  0  0  0  0  0
   -1.4186    0.5968   -0.5364 C   0  0  1  0  0  0  0  0  0  0  0  0
   -2.5217   -0.2740   -1.0012 C   0  0  0  0  0  0  0  0  0  0  0  0
   -3.6496   -0.0137   -0.0440 C   0  0  0  0  0  0  0  0  0  0  0  0
   -3.4477    1.3315    0.4615 N   0  0  0  0  0  0  0  0  0  0  0  0
   -2.0823    1.6489    0.2927 C   0  0  0  0  0  0  0  0  0  0  0  0
   -1.5316    2.6830    0.7860 O   0  0  0  0  0  0  0  0  0  0  0  0
    4.5916    1.0353    1.6928 H   0  0  0  0  0  0  0  0  0  0  0  0
    5.7815   -0.1500    0.9112 H   0  0  0  0  0  0  0  0  0  0  0  0
    4.5918    0.8556   -0.1058 H   0  0  0  0  0  0  0  0  0  0  0  0
    1.2890   -1.9616    1.3135 H   0  0  0  0  0  0  0  0  0  0  0  0
    1.9524   -2.4960   -0.2302 H   0  0  0  0  0  0  0  0  0  0  0  0
    0.3149   -1.2043   -1.3949 H   0  0  0  0  0  0  0  0  0  0  0  0
   -0.8441   -0.4932    1.1946 H   0  0  0  0  0  0  0  0  0  0  0  0
    0.3491    0.6827    0.6420 H   0  0  0  0  0  0  0  0  0  0  0  0
   -1.0054    1.1460   -1.4134 H   0  0  0  0  0  0  0  0  0  0  0  0
   -2.2556   -1.3566   -1.0508 H   0  0  0  0  0  0  0  0  0  0  0  0
   -2.8845    0.0637   -2.0055 H   0  0  0  0  0  0  0  0  0  0  0  0
   -4.6325   -0.0724   -0.5663 H   0  0  0  0  0  0  0  0  0  0  0  0
   -3.6058   -0.7602    0.7867 H   0  0  0  0  0  0  0  0  0  0  0  0
   -4.1822    1.9510    0.8778 H   0  0  0  0  0  0  0  0  0  0  0  0
  1  2  1  0
  2  3  1  0
  3  4  2  0
  3  5  1  0
  5  6  1  0
  6  7  1  0
  7  8  1  0
  8  9  1  0
  9 10  1  0
 10 11  1  0
 11 12  1  0
 12 13  2  0
 12  8  1  0
  1 14  1  0
  1 15  1  0
  1 16  1  0
  5 17  1  0
  5 18  1  0
  6 19  1  0
  7 20  1  0
  7 21  1  0
  8 22  1  6
  9 23  1  0
  9 24  1  0
 10 25  1  0
 10 26  1  0
 11 27  1  0
M  END
$$$$

     RDKit          3D

 27 27  0  0  0  0  0  0  0  0999 V2000
    5.3378   -0.0383    0.2974 C   0  0  0  0  0  0  0  0  0  0  0  0
    4.0886   -0.7525    0.2674 O   0  0  0  0  0  0  0  0  0  0  0  0
    2.8837   -0.0854    0.0781 C   0  0  0  0  0  0  0  0  0  0  0  0
    2.8509    1.1531   -0.0757 O   0  0  0  0  0  0  0  0  0  0  0  0
    1.6486   -0.9287    0.0650 C   0  0  0  0  0  0  0  0  0  0  0  0
    0.5464   -0.0289   -0.2277 N   0  0  0  0  0  0  0  0  0  0  0  0
   -0.7241   -0.7231   -0.3354 C   0  0  0  0  0  0  0  0  0  0  0  0
   -1.7310    0.2898   -0.7852 C   0  0  1  0  0  0  0  0  0  0  0  0
   -3.0856   -0.3825   -0.9186 C   0  0  0  0  0  0  0  0  0  0  0  0
   -4.0498    0.4380   -0.0941 C   0  0  0  0  0  0  0  0  0  0  0  0
   -3.1482    0.9879    0.9213 N   0  0  0  0  0  0  0  0  0  0  0  0
   -1.9358    1.3205    0.2533 C   0  0  0  0  0  0  0  0  0  0  0  0
   -1.2125    2.3297    0.5434 O   0  0  0  0  0  0  0  0  0  0  0  0
    5.9097   -0.4909    1.1418 H   0  0  0  0  0  0  0  0  0  0  0  0
    5.1804    1.0370    0.4174 H   0  0  0  0  0  0  0  0  0  0  0  0
    5.8504   -0.2184   -0.6664 H   0  0  0  0  0  0  0  0  0  0  0  0
    1.5527   -1.4634    1.0175 H   0  0  0  0  0  0  0  0  0  0  0  0
    1.6718   -1.6795   -0.7581 H   0  0  0  0  0  0  0  0  0  0  0  0
    0.4977    0.7467    0.4821 H   0  0  0  0  0  0  0  0  0  0  0  0
   -0.5871   -1.5100   -1.0901 H   0  0  0  0  0  0  0  0  0  0  0  0
   -1.0289   -1.1880    0.6051 H   0  0  0  0  0  0  0  0  0  0  0  0
   -1.4395    0.7360   -1.7651 H   0  0  0  0  0  0  0  0  0  0  0  0
   -3.3861   -0.4107   -1.9875 H   0  0  0  0  0  0  0  0  0  0  0  0
   -3.0550   -1.4438   -0.5693 H   0  0  0  0  0  0  0  0  0  0  0  0
   -4.8838   -0.1209    0.3264 H   0  0  0  0  0  0  0  0  0  0  0  0
   -4.4111    1.3023   -0.6951 H   0  0  0  0  0  0  0  0  0  0  0  0
   -3.3401    1.1240    1.9565 H   0  0  0  0  0  0  0  0  0  0  0  0
  1  2  1  0
  2  3  1  0
  3  4  2  0
  3  5  1  0
  5  6  1  0
  6  7  1  0
  7  8  1  0
  8  9  1  0
  9 10  1  0
 10 11  1  0
 11 12  1  0
 12 13  2  0
 12  8  1  0
  1 14  1  0
  1 15  1  0
  1 16  1  0
  5 17  1  0
  5 18  1  0
  6 19  1  0
  7 20  1  0
  7 21  1  0
  8 22  1  6
  9 23  1  0
  9 24  1  0
 10 25  1  0
 10 26  1  0
 11 27  1  0
M  END
$$$$

     RDKit          3D

 27 27  0  0  0  0  0  0  0  0999 V2000
    5.1793   -0.7598   -0.2742 C   0  0  0  0  0  0  0  0  0  0  0  0
    3.8738   -0.9571    0.2389 O   0  0  0  0  0  0  0  0  0  0  0  0
    2.8054   -0.1349   -0.1518 C   0  0  0  0  0  0  0  0  0  0  0  0
    3.0518    0.7779   -0.9714 O   0  0  0  0  0  0  0  0  0  0  0  0
    1.4862   -0.4178    0.4381 C   0  0  0  0  0  0  0  0  0  0  0  0
    0.4630    0.4948   -0.0107 N   0  0  0  0  0  0  0  0  0  0  0  0
   -0.7151    0.3717    0.7976 C   0  0  0  0  0  0  0  0  0  0  0  0
   -1.9081    1.1449    0.3613 C   0  0  1  0  0  0  0  0  0  0  0  0
   -2.4305    0.7353   -0.9973 C   0  0  0  0  0  0  0  0  0  0  0  0
   -3.0344   -0.6382   -0.6605 C   0  0  0  0  0  0  0  0  0  0  0  0
   -3.6204   -0.3899    0.6458 N   0  0  0  0  0  0  0  0  0  0  0  0
   -3.0630    0.7948    1.2272 C   0  0  0  0  0  0  0  0  0  0  0  0
   -3.4523    1.4041    2.2322 O   0  0  0  0  0  0  0  0  0  0  0  0
    5.6824   -1.7418   -0.4257 H   0  0  0  0  0  0  0  0  0  0  0  0
    5.1406   -0.2313   -1.2741 H   0  0  0  0  0  0  0  0  0  0  0  0
    5.8174   -0.1872    0.4334 H   0  0  0  0  0  0  0  0  0  0  0  0
    1.5405   -0.5372    1.5200 H   0  0  0  0  0  0  0  0  0  0  0  0
    1.1329   -1.4438    0.0266 H   0  0  0  0  0  0  0  0  0  0  0  0
    0.3264    0.5192   -1.0281 H   0  0  0  0  0  0  0  0  0  0  0  0
   -0.4191    0.7826    1.8220 H   0  0  0  0  0  0  0  0  0  0  0  0
   -0.9558   -0.7065    0.9627 H   0  0  0  0  0  0  0  0  0  0  0  0
   -1.6634    2.2425    0.3945 H   0  0  0  0  0  0  0  0  0  0  0  0
   -1.6967    0.7022   -1.7887 H   0  0  0  0  0  0  0  0  0  0  0  0
   -3.2620    1.4460   -1.2228 H   0  0  0  0  0  0  0  0  0  0  0  0
   -2.1984   -1.3770   -0.6164 H   0  0  0  0  0  0  0  0  0  0  0  0
   -3.7508   -0.9174   -1.4332 H   0  0  0  0  0  0  0  0  0  0  0  0
   -4.3297   -0.9761    1.0979 H   0  0  0  0  0  0  0  0  0  0  0  0
  1  2  1  0
  2  3  1  0
  3  4  2  0
  3  5  1  0
  5  6  1  0
  6  7  1  0
  7  8  1  0
  8  9  1  0
  9 10  1  0
 10 11  1  0
 11 12  1  0
 12 13  2  0
 12  8  1  0
  1 14  1  0
  1 15  1  0
  1 16  1  0
  5 17  1  0
  5 18  1  0
  6 19  1  0
  7 20  1  0
  7 21  1  0
  8 22  1  6
  9 23  1  0
  9 24  1  0
 10 25  1  0
 10 26  1  0
 11 27  1  0
M  END
$$$$

     RDKit          3D

 27 27  0  0  0  0  0  0  0  0999 V2000
    5.0217    0.7218   -0.9769 C   0  0  0  0  0  0  0  0  0  0  0  0
    3.7211    0.1619   -1.0045 O   0  0  0  0  0  0  0  0  0  0  0  0
    2.8352    0.2340    0.0494 C   0  0  0  0  0  0  0  0  0  0  0  0
    3.1673    0.8100    1.1002 O   0  0  0  0  0  0  0  0  0  0  0  0
    1.4996   -0.3776   -0.1045 C   0  0  0  0  0  0  0  0  0  0  0  0
    0.6272   -0.1992    1.0046 N   0  0  0  0  0  0  0  0  0  0  0  0
   -0.6156   -0.8424    0.7677 C   0  0  0  0  0  0  0  0  0  0  0  0
   -1.4742   -0.2493   -0.3157 C   0  0  1  0  0  0  0  0  0  0  0  0
   -2.7363   -1.1003   -0.3595 C   0  0  0  0  0  0  0  0  0  0  0  0
   -3.7966   -0.1677   -0.8360 C   0  0  0  0  0  0  0  0  0  0  0  0
   -3.3578    1.1180   -0.3487 N   0  0  0  0  0  0  0  0  0  0  0  0
   -1.9622    1.0981   -0.0893 C   0  0  0  0  0  0  0  0  0  0  0  0
   -1.3267    2.1162    0.2698 O   0  0  0  0  0  0  0  0  0  0  0  0
    5.0476    1.4447   -1.8435 H   0  0  0  0  0  0  0  0  0  0  0  0
    5.2107    1.2566   -0.0421 H   0  0  0  0  0  0  0  0  0  0  0  0
    5.7880   -0.0545   -1.2143 H   0  0  0  0  0  0  0  0  0  0  0  0
    0.9933    0.0324   -1.0090 H   0  0  0  0  0  0  0  0  0  0  0  0
    1.6095   -1.4873   -0.2766 H   0  0  0  0  0  0  0  0  0  0  0  0
    0.5879    0.7368    1.4156 H   0  0  0  0  0  0  0  0  0  0  0  0
   -1.2317   -0.9804    1.6865 H   0  0  0  0  0  0  0  0  0  0  0  0
   -0.3989   -1.9030    0.4399 H   0  0  0  0  0  0  0  0  0  0  0  0
   -0.9644   -0.3029   -1.3115 H   0  0  0  0  0  0  0  0  0  0  0  0
   -2.9654   -1.3849    0.6890 H   0  0  0  0  0  0  0  0  0  0  0  0
   -2.5568   -1.9744   -1.0142 H   0  0  0  0  0  0  0  0  0  0  0  0
   -3.9186   -0.1993   -1.9176 H   0  0  0  0  0  0  0  0  0  0  0  0
   -4.7659   -0.4342   -0.3355 H   0  0  0  0  0  0  0  0  0  0  0  0
   -4.0382    1.9268   -0.2253 H   0  0  0  0  0  0  0  0  0  0  0  0
  1  2  1  0
  2  3  1  0
  3  4  2  0
  3  5  1  0
  5  6  1  0
  6  7  1  0
  7  8  1  0
  8  9  1  0
  9 10  1  0
 10 11  1  0
 11 12  1  0
 12 13  2  0
 12  8  1  0
  1 14  1  0
  1 15  1  0
  1 16  1  0
  5 17  1  0
  5 18  1  0
  6 19  1  0
  7 20  1  0
  7 21  1  0
  8 22  1  6
  9 23  1  0
  9 24  1  0
 10 25  1  0
 10 26  1  0
 11 27  1  0
M  END
$$$$
