
     RDKit          3D

 23 22  0  0  0  0  0  0  0  0999 V2000
   -3.0168    1.3675   -0.1927 C   0  0  0  0  0  0  0  0  0  0  0  0
   -2.9234   -0.1504   -0.0759 C   0  0  2  0  0  0  0  0  0  0  0  0
   -3.9659   -0.5878    0.7335 O   0  0  0  0  0  0  0  0  0  0  0  0
   -1.5988   -0.4668    0.5150 C   0  0  0  0  0  0  0  0  0  0  0  0
   -1.5894   -1.0649    1.6255 O   0  0  0  0  0  0  0  0  0  0  0  0
   -0.4119   -0.0984   -0.1658 N   0  0  0  0  0  0  0  0  0  0  0  0
    0.8520   -0.4320    0.4569 C   0  0  0  0  0  0  0  0  0  0  0  0
    2.0213    0.0252   -0.3890 C   0  0  0  0  0  0  0  0  0  0  0  0
    1.9557   -0.6000   -1.6301 F   0  0  0  0  0  0  0  0  0  0  0  0
    1.9666    1.3878   -0.5453 F   0  0  0  0  0  0  0  0  0  0  0  0
    3.2775   -0.3477    0.2893 C   0  0  0  0  0  0  0  0  0  0  0  0
    4.5548   -0.0609   -0.2439 N   0  0  0  0  0  0  0  0  0  0  0  0
    3.2600   -0.9571    1.4088 O   0  0  0  0  0  0  0  0  0  0  0  0
   -4.0498    1.6764    0.0203 H   0  0  0  0  0  0  0  0  0  0  0  0
   -2.6825    1.6238   -1.2176 H   0  0  0  0  0  0  0  0  0  0  0  0
   -2.3356    1.8664    0.5101 H   0  0  0  0  0  0  0  0  0  0  0  0
   -3.0709   -0.6294   -1.0699 H   0  0  0  0  0  0  0  0  0  0  0  0
   -3.7713   -1.5307    0.9941 H   0  0  0  0  0  0  0  0  0  0  0  0
   -0.4165    0.3889   -1.0707 H   0  0  0  0  0  0  0  0  0  0  0  0
    0.8751   -1.5140    0.6173 H   0  0  0  0  0  0  0  0  0  0  0  0
    0.9649    0.0495    1.4475 H   0  0  0  0  0  0  0  0  0  0  0  0
    5.1202   -0.8352   -0.6646 H   0  0  0  0  0  0  0  0  0  0  0  0
    4.9848    0.8898   -0.2484 H   0  0  0  0  0  0  0  0  0  0  0  0
  1  2  1  0
  2  3  1  0
  2  4  1  0
  4  5  2  0
  4  6  1  0
  6  7  1  0
  7  8  1  0
  8  9  1  0
  8 10  1  0
  8 11  1  0
 11 12  1  0
 11 13  2  0
  1 14  1  0
  1 15  1  0
  1 16  1  0
  2 17  1  6
  3 18  1  0
  6 19  1  0
  7 20  1  0
  7 21  1  0
 12 22  1  0
 12 23  1  0
M  END
$$$$

     RDKit          3D

 23 22  0  0  0  0  0  0  0  0999 V2000
   -3.5778    0.8823    0.7277 C   0  0  0  0  0  0  0  0  0  0  0  0
   -2.8717    0.0633   -0.3481 C   0  0  2  0  0  0  0  0  0  0  0  0
   -2.9743   -1.2944   -0.1043 O   0  0  0  0  0  0  0  0  0  0  0  0
   -1.4671    0.5320   -0.3883 C   0  0  0  0  0  0  0  0  0  0  0  0
   -1.2821    1.7577   -0.6057 O   0  0  0  0  0  0  0  0  0  0  0  0
   -0.3531   -0.3227   -0.1968 N   0  0  0  0  0  0  0  0  0  0  0  0
    0.9549    0.2488   -0.2588 C   0  0  0  0  0  0  0  0  0  0  0  0
    2.0678   -0.7168   -0.0471 C   0  0  0  0  0  0  0  0  0  0  0  0
    2.0176   -1.3415    1.1831 F   0  0  0  0  0  0  0  0  0  0  0  0
    2.0486   -1.7012   -1.0091 F   0  0  0  0  0  0  0  0  0  0  0  0
    3.3508    0.0563   -0.0698 C   0  0  0  0  0  0  0  0  0  0  0  0
    4.6077   -0.5509    0.1012 N   0  0  0  0  0  0  0  0  0  0  0  0
    3.3461    1.3225   -0.2494 O   0  0  0  0  0  0  0  0  0  0  0  0
   -2.9506    1.7247    1.0844 H   0  0  0  0  0  0  0  0  0  0  0  0
   -4.5159    1.3404    0.3387 H   0  0  0  0  0  0  0  0  0  0  0  0
   -3.7804    0.2445    1.6274 H   0  0  0  0  0  0  0  0  0  0  0  0
   -3.3424    0.3291   -1.3180 H   0  0  0  0  0  0  0  0  0  0  0  0
   -3.0317   -1.5171    0.8506 H   0  0  0  0  0  0  0  0  0  0  0  0
   -0.5238   -1.3289   -0.0190 H   0  0  0  0  0  0  0  0  0  0  0  0
    1.0080    1.0377    0.5475 H   0  0  0  0  0  0  0  0  0  0  0  0
    1.1325    0.7805   -1.2110 H   0  0  0  0  0  0  0  0  0  0  0  0
    5.1357   -0.8949   -0.7141 H   0  0  0  0  0  0  0  0  0  0  0  0
    5.0014   -0.6515    1.0481 H   0  0  0  0  0  0  0  0  0  0  0  0
  1  2  1  0
  2  3  1  0
  2  4  1  0
  4  5  2  0
  4  6  1  0
  6  7  1  0
  7  8  1  0
  8  9  1  0
  8 10  1  0
  8 11  1  0
 11 12  1  0
 11 13  2  0
  1 14  1  0
  1 15  1  0
  1 16  1  0
  2 17  1  6
  3 18  1  0
  6 19  1  0
  7 20  1  0
  7 21  1  0
 12 22  1  0
 12 23  1  0
M  END
$$$$

     RDKit          3D

 23 22  0  0  0  0  0  0  0  0999 V2000
   -3.1650    0.4029   -0.5656 C   0  0  0  0  0  0  0  0  0  0  0  0
   -2.7482   -0.8383    0.2334 C   0  0  2  0  0  0  0  0  0  0  0  0
   -3.6575   -1.0699    1.2509 O   0  0  0  0  0  0  0  0  0  0  0  0
   -1.4169   -0.5410    0.7967 C   0  0  0  0  0  0  0  0  0  0  0  0
   -1.2663   -0.5310    2.0366 O   0  0  0  0  0  0  0  0  0  0  0  0
   -0.3398   -0.2738   -0.0813 N   0  0  0  0  0  0  0  0  0  0  0  0
    0.9604    0.0164    0.4755 C   0  0  0  0  0  0  0  0  0  0  0  0
    1.9701    0.2718   -0.5954 C   0  0  0  0  0  0  0  0  0  0  0  0
    2.0776   -0.8452   -1.3997 F   0  0  0  0  0  0  0  0  0  0  0  0
    1.5498    1.3678   -1.3607 F   0  0  0  0  0  0  0  0  0  0  0  0
    3.2716    0.5807    0.0379 C   0  0  0  0  0  0  0  0  0  0  0  0
    4.3794    0.8580   -0.8021 N   0  0  0  0  0  0  0  0  0  0  0  0
    3.3641    0.5901    1.2983 O   0  0  0  0  0  0  0  0  0  0  0  0
   -2.2605    0.7567   -1.1093 H   0  0  0  0  0  0  0  0  0  0  0  0
   -3.9714    0.1078   -1.2603 H   0  0  0  0  0  0  0  0  0  0  0  0
   -3.4542    1.1737    0.1626 H   0  0  0  0  0  0  0  0  0  0  0  0
   -2.7106   -1.6717   -0.4977 H   0  0  0  0  0  0  0  0  0  0  0  0
   -3.9268   -2.0354    1.2731 H   0  0  0  0  0  0  0  0  0  0  0  0
   -0.4306   -0.2740   -1.1233 H   0  0  0  0  0  0  0  0  0  0  0  0
    1.3284   -0.8354    1.1025 H   0  0  0  0  0  0  0  0  0  0  0  0
    0.8815    0.8820    1.1640 H   0  0  0  0  0  0  0  0  0  0  0  0
    5.2019    0.2446   -0.7692 H   0  0  0  0  0  0  0  0  0  0  0  0
    4.3630    1.6632   -1.4383 H   0  0  0  0  0  0  0  0  0  0  0  0
  1  2  1  0
  2  3  1  0
  2  4  1  0
  4  5  2  0
  4  6  1  0
  6  7  1  0
  7  8  1  0
  8  9  1  0
  8 10  1  0
  8 11  1  0
 11 12  1  0
 11 13  2  0
  1 14  1  0
  1 15  1  0
  1 16  1  0
  2 17  1  6
  3 18  1  0
  6 19  1  0
  7 20  1  0
  7 21  1  0
 12 22  1  0
 12 23  1  0
M  END
$$$$

     RDKit          3D

 23 22  0  0  0  0  0  0  0  0999 V2000
    3.5022   -0.9475    0.3955 C   0  0  0  0  0  0  0  0  0  0  0  0
    2.4665    0.1510    0.2711 C   0  0  2  0  0  0  0  0  0  0  0  0
    2.1861    0.6678    1.5159 O   0  0  0  0  0  0  0  0  0  0  0  0
    1.2527   -0.3248   -0.4415 C   0  0  0  0  0  0  0  0  0  0  0  0
    1.4127   -0.8142   -1.5893 O   0  0  0  0  0  0  0  0  0  0  0  0
   -0.0528   -0.2596    0.0893 N   0  0  0  0  0  0  0  0  0  0  0  0
   -1.2222   -0.7452   -0.6585 C   0  0  0  0  0  0  0  0  0  0  0  0
   -2.4839   -0.5651    0.1180 C   0  0  0  0  0  0  0  0  0  0  0  0
   -2.3576   -1.2881    1.2973 F   0  0  0  0  0  0  0  0  0  0  0  0
   -3.5087   -1.1493   -0.5911 F   0  0  0  0  0  0  0  0  0  0  0  0
   -2.8032    0.8402    0.4050 C   0  0  0  0  0  0  0  0  0  0  0  0
   -3.0001    1.7576   -0.6543 N   0  0  0  0  0  0  0  0  0  0  0  0
   -2.9018    1.2285    1.5916 O   0  0  0  0  0  0  0  0  0  0  0  0
    3.9213   -0.9391    1.4267 H   0  0  0  0  0  0  0  0  0  0  0  0
    4.3661   -0.7891   -0.2820 H   0  0  0  0  0  0  0  0  0  0  0  0
    3.0946   -1.9455    0.1679 H   0  0  0  0  0  0  0  0  0  0  0  0
    2.8809    0.9885   -0.3455 H   0  0  0  0  0  0  0  0  0  0  0  0
    1.9651    1.6210    1.4503 H   0  0  0  0  0  0  0  0  0  0  0  0
   -0.1886    0.1389    1.0255 H   0  0  0  0  0  0  0  0  0  0  0  0
   -1.2734   -0.1118   -1.5843 H   0  0  0  0  0  0  0  0  0  0  0  0
   -1.1013   -1.7817   -0.9706 H   0  0  0  0  0  0  0  0  0  0  0  0
   -3.0778    1.4800   -1.6486 H   0  0  0  0  0  0  0  0  0  0  0  0
   -3.0768    2.7877   -0.4599 H   0  0  0  0  0  0  0  0  0  0  0  0
  1  2  1  0
  2  3  1  0
  2  4  1  0
  4  5  2  0
  4  6  1  0
  6  7  1  0
  7  8  1  0
  8  9  1  0
  8 10  1  0
  8 11  1  0
 11 12  1  0
 11 13  2  0
  1 14  1  0
  1 15  1  0
  1 16  1  0
  2 17  1  6
  3 18  1  0
  6 19  1  0
  7 20  1  0
  7 21  1  0
 12 22  1  0
 12 23  1  0
M  END
$$$$

     RDKit          3D

 23 22  0  0  0  0  0  0  0  0999 V2000
    3.2262   -0.7103   -0.2003 C   0  0  0  0  0  0  0  0  0  0  0  0
    2.5796    0.2431   -1.1818 C   0  0  2  0  0  0  0  0  0  0  0  0
    3.3694    1.3582   -1.3684 O   0  0  0  0  0  0  0  0  0  0  0  0
    1.2834    0.6684   -0.6064 C   0  0  0  0  0  0  0  0  0  0  0  0
    1.0788    1.8857   -0.3783 O   0  0  0  0  0  0  0  0  0  0  0  0
    0.2645   -0.2900   -0.3085 N   0  0  0  0  0  0  0  0  0  0  0  0
   -0.9664    0.2042    0.2486 C   0  0  0  0  0  0  0  0  0  0  0  0
   -1.9330   -0.9470    0.5023 C   0  0  0  0  0  0  0  0  0  0  0  0
   -1.4058   -1.8495    1.3737 F   0  0  0  0  0  0  0  0  0  0  0  0
   -2.1905   -1.5617   -0.7101 F   0  0  0  0  0  0  0  0  0  0  0  0
   -3.1689   -0.3442    1.0583 C   0  0  0  0  0  0  0  0  0  0  0  0
   -3.9275    0.6112    0.3460 N   0  0  0  0  0  0  0  0  0  0  0  0
   -3.5508   -0.6979    2.2018 O   0  0  0  0  0  0  0  0  0  0  0  0
    2.5021   -1.4752    0.0835 H   0  0  0  0  0  0  0  0  0  0  0  0
    4.1856   -1.0948   -0.5794 H   0  0  0  0  0  0  0  0  0  0  0  0
    3.4724   -0.1086    0.7088 H   0  0  0  0  0  0  0  0  0  0  0  0
    2.4200   -0.2837   -2.1473 H   0  0  0  0  0  0  0  0  0  0  0  0
    3.0489    2.0990   -0.8204 H   0  0  0  0  0  0  0  0  0  0  0  0
    0.4782   -1.2787   -0.5131 H   0  0  0  0  0  0  0  0  0  0  0  0
   -0.8391    0.7483    1.2009 H   0  0  0  0  0  0  0  0  0  0  0  0
   -1.4907    0.8625   -0.5004 H   0  0  0  0  0  0  0  0  0  0  0  0
   -4.6018    1.2437    0.8139 H   0  0  0  0  0  0  0  0  0  0  0  0
   -3.8345    0.7173   -0.7003 H   0  0  0  0  0  0  0  0  0  0  0  0
  1  2  1  0
  2  3  1  0
  2  4  1  0
  4  5  2  0
  4  6  1  0
  6  7  1  0
  7  8  1  0
  8  9  1  0
  8 10  1  0
  8 11  1  0
 11 12  1  0
 11 13  2  0
  1 14  1  0
  1 15  1  0
  1 16  1  0
  2 17  1  6
  3 18  1  0
  6 19  1  0
  7 20  1  0
  7 21  1  0
 12 22  1  0
 12 23  1  0
M  END
$$$$

     RDKit          3D

 23 22  0  0  0  0  0  0  0  0999 V2000
   -2.9838   -1.4951   -0.6142 C   0  0  0  0  0  0  0  0  0  0  0  0
   -2.9163   -0.2344    0.2274 C   0  0  2  0  0  0  0  0  0  0  0  0
   -4.0335    0.5480   -0.0182 O   0  0  0  0  0  0  0  0  0  0  0  0
   -1.6553    0.5283   -0.0475 C   0  0  0  0  0  0  0  0  0  0  0  0
   -1.7094    1.7227   -0.4476 O   0  0  0  0  0  0  0  0  0  0  0  0
   -0.3772   -0.0471    0.1263 N   0  0  0  0  0  0  0  0  0  0  0  0
    0.8369    0.7298   -0.1527 C   0  0  0  0  0  0  0  0  0  0  0  0
    2.0705   -0.0926    0.1047 C   0  0  0  0  0  0  0  0  0  0  0  0
    2.0555   -0.4747    1.4490 F   0  0  0  0  0  0  0  0  0  0  0  0
    2.1540   -1.1799   -0.7289 F   0  0  0  0  0  0  0  0  0  0  0  0
    3.2656    0.7740   -0.0594 C   0  0  0  0  0  0  0  0  0  0  0  0
    4.5792    0.2601    0.1246 N   0  0  0  0  0  0  0  0  0  0  0  0
    3.1415    1.9995   -0.3691 O   0  0  0  0  0  0  0  0  0  0  0  0
   -3.2805   -1.2639   -1.6531 H   0  0  0  0  0  0  0  0  0  0  0  0
   -2.0100   -2.0070   -0.6083 H   0  0  0  0  0  0  0  0  0  0  0  0
   -3.7889   -2.1301   -0.1863 H   0  0  0  0  0  0  0  0  0  0  0  0
   -2.9232   -0.4940    1.3031 H   0  0  0  0  0  0  0  0  0  0  0  0
   -3.8250    1.1099   -0.8039 H   0  0  0  0  0  0  0  0  0  0  0  0
   -0.3022   -1.0276    0.4543 H   0  0  0  0  0  0  0  0  0  0  0  0
    0.7893    1.0789   -1.1848 H   0  0  0  0  0  0  0  0  0  0  0  0
    0.8438    1.5812    0.5297 H   0  0  0  0  0  0  0  0  0  0  0  0
    5.3939    0.7482   -0.2617 H   0  0  0  0  0  0  0  0  0  0  0  0
    4.6751   -0.6341    0.6693 H   0  0  0  0  0  0  0  0  0  0  0  0
  1  2  1  0
  2  3  1  0
  2  4  1  0
  4  5  2  0
  4  6  1  0
  6  7  1  0
  7  8  1  0
  8  9  1  0
  8 10  1  0
  8 11  1  0
 11 12  1  0
 11 13  2  0
  1 14  1  0
  1 15  1  0
  1 16  1  0
  2 17  1  1
  3 18  1  0
  6 19  1  0
  7 20  1  0
  7 21  1  0
 12 22  1  0
 12 23  1  0
M  END
$$$$

     RDKit          3D

 23 22  0  0  0  0  0  0  0  0999 V2000
    3.2867    1.5608   -0.2414 C   0  0  0  0  0  0  0  0  0  0  0  0
    2.7171    0.2943    0.3653 C   0  0  2  0  0  0  0  0  0  0  0  0
    2.8485   -0.7302   -0.5805 O   0  0  0  0  0  0  0  0  0  0  0  0
    1.2710    0.4381    0.6878 C   0  0  0  0  0  0  0  0  0  0  0  0
    0.9137    1.2996    1.5157 O   0  0  0  0  0  0  0  0  0  0  0  0
    0.2897   -0.3842    0.0735 N   0  0  0  0  0  0  0  0  0  0  0  0
   -1.0945   -0.2221    0.4044 C   0  0  0  0  0  0  0  0  0  0  0  0
   -1.9555   -1.1951   -0.3624 C   0  0  0  0  0  0  0  0  0  0  0  0
   -1.5821   -2.5038   -0.0589 F   0  0  0  0  0  0  0  0  0  0  0  0
   -1.8224   -0.9173   -1.7001 F   0  0  0  0  0  0  0  0  0  0  0  0
   -3.3787   -0.9898    0.0151 C   0  0  0  0  0  0  0  0  0  0  0  0
   -3.9729    0.2662   -0.2108 N   0  0  0  0  0  0  0  0  0  0  0  0
   -4.0517   -1.9347    0.5350 O   0  0  0  0  0  0  0  0  0  0  0  0
    4.3314    1.7058    0.1078 H   0  0  0  0  0  0  0  0  0  0  0  0
    3.3051    1.4606   -1.3475 H   0  0  0  0  0  0  0  0  0  0  0  0
    2.7001    2.4638    0.0497 H   0  0  0  0  0  0  0  0  0  0  0  0
    3.2412   -0.0080    1.2879 H   0  0  0  0  0  0  0  0  0  0  0  0
    3.4454   -1.4340   -0.2382 H   0  0  0  0  0  0  0  0  0  0  0  0
    0.5614   -1.1144   -0.6239 H   0  0  0  0  0  0  0  0  0  0  0  0
   -1.4039    0.7994    0.0742 H   0  0  0  0  0  0  0  0  0  0  0  0
   -1.2800   -0.3837    1.4849 H   0  0  0  0  0  0  0  0  0  0  0  0
   -4.8634    0.4145   -0.7364 H   0  0  0  0  0  0  0  0  0  0  0  0
   -3.5064    1.1142    0.1645 H   0  0  0  0  0  0  0  0  0  0  0  0
  1  2  1  0
  2  3  1  0
  2  4  1  0
  4  5  2  0
  4  6  1  0
  6  7  1  0
  7  8  1  0
  8  9  1  0
  8 10  1  0
  8 11  1  0
 11 12  1  0
 11 13  2  0
  1 14  1  0
  1 15  1  0
  1 16  1  0
  2 17  1  1
  3 18  1  0
  6 19  1  0
  7 20  1  0
  7 21  1  0
 12 22  1  0
 12 23  1  0
M  END
$$$$

     RDKit          3D

 23 22  0  0  0  0  0  0  0  0999 V2000
   -3.7004    0.2591    0.4875 C   0  0  0  0  0  0  0  0  0  0  0  0
   -2.6949   -0.0504   -0.6016 C   0  0  2  0  0  0  0  0  0  0  0  0
   -2.6330   -1.4303   -0.7665 O   0  0  0  0  0  0  0  0  0  0  0  0
   -1.3660    0.5133   -0.3198 C   0  0  0  0  0  0  0  0  0  0  0  0
   -1.2527    1.7550   -0.1446 O   0  0  0  0  0  0  0  0  0  0  0  0
   -0.2078   -0.3036   -0.2398 N   0  0  0  0  0  0  0  0  0  0  0  0
    1.0844    0.2744    0.0380 C   0  0  0  0  0  0  0  0  0  0  0  0
    2.1825   -0.7612    0.0808 C   0  0  0  0  0  0  0  0  0  0  0  0
    2.2856   -1.4250   -1.1265 F   0  0  0  0  0  0  0  0  0  0  0  0
    1.9405   -1.7227    1.0425 F   0  0  0  0  0  0  0  0  0  0  0  0
    3.4660   -0.0798    0.3220 C   0  0  0  0  0  0  0  0  0  0  0  0
    3.9275    0.8874   -0.5910 N   0  0  0  0  0  0  0  0  0  0  0  0
    4.1455   -0.3533    1.3272 O   0  0  0  0  0  0  0  0  0  0  0  0
   -3.9149    1.3390    0.4770 H   0  0  0  0  0  0  0  0  0  0  0  0
   -4.6291   -0.2934    0.2229 H   0  0  0  0  0  0  0  0  0  0  0  0
   -3.3786   -0.1257    1.4737 H   0  0  0  0  0  0  0  0  0  0  0  0
   -3.1236    0.3631   -1.5455 H   0  0  0  0  0  0  0  0  0  0  0  0
   -2.4215   -1.8751    0.0829 H   0  0  0  0  0  0  0  0  0  0  0  0
   -0.3359   -1.3259   -0.3896 H   0  0  0  0  0  0  0  0  0  0  0  0
    1.3358    0.9520   -0.8256 H   0  0  0  0  0  0  0  0  0  0  0  0
    1.0526    0.8954    0.9353 H   0  0  0  0  0  0  0  0  0  0  0  0
    4.4201    0.6058   -1.4889 H   0  0  0  0  0  0  0  0  0  0  0  0
    3.8177    1.9020   -0.4462 H   0  0  0  0  0  0  0  0  0  0  0  0
  1  2  1  0
  2  3  1  0
  2  4  1  0
  4  5  2  0
  4  6  1  0
  6  7  1  0
  7  8  1  0
  8  9  1  0
  8 10  1  0
  8 11  1  0
 11 12  1  0
 11 13  2  0
  1 14  1  0
  1 15  1  0
  1 16  1  0
  2 17  1  6
  3 18  1  0
  6 19  1  0
  7 20  1  0
  7 21  1  0
 12 22  1  0
 12 23  1  0
M  END
$$$$
