
     RDKit          3D

 28 28  0  0  0  0  0  0  0  0999 V2000
   -2.0134    1.7848    0.7388 C   0  0  0  0  0  0  0  0  0  0  0  0
   -1.7962    1.1506   -0.6318 C   0  0  2  0  0  0  0  0  0  0  0  0
   -3.0672    0.9833   -1.1851 O   0  0  0  0  0  0  0  0  0  0  0  0
   -1.1722   -0.2163   -0.4843 C   0  0  2  0  0  0  0  0  0  0  0  0
   -1.6360   -0.9317    0.7678 C   0  0  0  0  0  0  0  0  0  0  0  0
   -0.2203   -1.4694    0.7541 C   0  0  0  0  0  0  0  0  0  0  0  0
    0.1530   -0.2415    0.0785 N   0  0  0  0  0  0  0  0  0  0  0  0
    1.2347   -0.4304   -0.8537 C   0  0  0  0  0  0  0  0  0  0  0  0
    2.4842   -0.7469   -0.0480 C   0  0  1  0  0  0  0  0  0  0  0  0
    3.5938   -0.9460   -0.8403 O   0  0  0  0  0  0  0  0  0  0  0  0
    2.7214    0.2982    0.9842 C   0  0  0  0  0  0  0  0  0  0  0  0
    3.8726    0.8459    1.0080 O   0  0  0  0  0  0  0  0  0  0  0  0
    1.7958    0.7070    1.9019 O   0  0  0  0  0  0  0  0  0  0  0  0
   -2.1286    2.8846    0.5884 H   0  0  0  0  0  0  0  0  0  0  0  0
   -2.9338    1.3570    1.1900 H   0  0  0  0  0  0  0  0  0  0  0  0
   -1.1439    1.6488    1.4095 H   0  0  0  0  0  0  0  0  0  0  0  0
   -1.1864    1.8296   -1.2530 H   0  0  0  0  0  0  0  0  0  0  0  0
   -2.9811    0.3417   -1.9337 H   0  0  0  0  0  0  0  0  0  0  0  0
   -1.3489   -0.8888   -1.3577 H   0  0  0  0  0  0  0  0  0  0  0  0
   -1.7847   -0.2727    1.6315 H   0  0  0  0  0  0  0  0  0  0  0  0
   -2.4203   -1.6956    0.6003 H   0  0  0  0  0  0  0  0  0  0  0  0
   -0.0976   -2.3466    0.0879 H   0  0  0  0  0  0  0  0  0  0  0  0
    0.2324   -1.6044    1.7562 H   0  0  0  0  0  0  0  0  0  0  0  0
    1.0630   -1.2610   -1.5711 H   0  0  0  0  0  0  0  0  0  0  0  0
    1.4147    0.5153   -1.3869 H   0  0  0  0  0  0  0  0  0  0  0  0
    2.3503   -1.7076    0.5280 H   0  0  0  0  0  0  0  0  0  0  0  0
    3.3154   -1.2842   -1.7292 H   0  0  0  0  0  0  0  0  0  0  0  0
    1.6992    1.6963    2.0990 H   0  0  0  0  0  0  0  0  0  0  0  0
  1  2  1  0
  2  3  1  0
  2  4  1  0
  4  5  1  0
  5  6  1  0
  6  7  1  0
  7  8  1  0
  8  9  1  0
  9 10  1  0
  9 11  1  0
 11 12  2  0
 11 13  1  0
  7  4  1  0
  1 14  1  0
  1 15  1  0
  1 16  1  0
  2 17  1  6
  3 18  1  0
  4 19  1  6
  5 20  1  0
  5 21  1  0
  6 22  1  0
  6 23  1  0
  8 24  1  0
  8 25  1  0
  9 26  1  1
 10 27  1  0
 13 28  1  0
M  END
$$$$

     RDKit          3D

 28 28  0  0  0  0  0  0  0  0999 V2000
   -2.0652   -0.9227    1.2676 C   0  0  0  0  0  0  0  0  0  0  0  0
   -2.0354   -0.3845   -0.1163 C   0  0  2  0  0  0  0  0  0  0  0  0
   -2.1133   -1.3346   -1.1122 O   0  0  0  0  0  0  0  0  0  0  0  0
   -1.1407    0.7482   -0.3375 C   0  0  2  0  0  0  0  0  0  0  0  0
   -1.2584    1.3878   -1.7412 C   0  0  0  0  0  0  0  0  0  0  0  0
    0.0818    1.9796   -1.2601 C   0  0  0  0  0  0  0  0  0  0  0  0
    0.2354    0.6287   -0.6504 N   0  0  0  0  0  0  0  0  0  0  0  0
    1.2564    0.5622    0.3099 C   0  0  0  0  0  0  0  0  0  0  0  0
    1.5907   -0.9262    0.5059 C   0  0  1  0  0  0  0  0  0  0  0  0
    2.0017   -1.4051   -0.7627 O   0  0  0  0  0  0  0  0  0  0  0  0
    2.7837   -1.0430    1.3701 C   0  0  0  0  0  0  0  0  0  0  0  0
    2.6739   -0.8396    2.5908 O   0  0  0  0  0  0  0  0  0  0  0  0
    4.0519   -1.3777    0.8593 O   0  0  0  0  0  0  0  0  0  0  0  0
   -1.3750   -1.7385    1.4916 H   0  0  0  0  0  0  0  0  0  0  0  0
   -1.8783   -0.0975    1.9961 H   0  0  0  0  0  0  0  0  0  0  0  0
   -3.1152   -1.2732    1.5072 H   0  0  0  0  0  0  0  0  0  0  0  0
   -3.1157    0.1269   -0.1933 H   0  0  0  0  0  0  0  0  0  0  0  0
   -3.0047   -1.7853   -1.0506 H   0  0  0  0  0  0  0  0  0  0  0  0
   -1.3756    1.5932    0.3815 H   0  0  0  0  0  0  0  0  0  0  0  0
   -1.1228    0.6119   -2.5401 H   0  0  0  0  0  0  0  0  0  0  0  0
   -2.0742    2.0829   -1.8262 H   0  0  0  0  0  0  0  0  0  0  0  0
    0.8344    2.0942   -2.0365 H   0  0  0  0  0  0  0  0  0  0  0  0
   -0.0709    2.7602   -0.5218 H   0  0  0  0  0  0  0  0  0  0  0  0
    0.9667    0.9106    1.3282 H   0  0  0  0  0  0  0  0  0  0  0  0
    2.1825    1.0702   -0.0253 H   0  0  0  0  0  0  0  0  0  0  0  0
    0.7511   -1.5136    0.8199 H   0  0  0  0  0  0  0  0  0  0  0  0
    1.4475   -1.0215   -1.4767 H   0  0  0  0  0  0  0  0  0  0  0  0
    4.8878   -0.8937    1.2228 H   0  0  0  0  0  0  0  0  0  0  0  0
  1  2  1  0
  2  3  1  0
  2  4  1  0
  4  5  1  0
  5  6  1  0
  6  7  1  0
  7  8  1  0
  8  9  1  0
  9 10  1  0
  9 11  1  0
 11 12  2  0
 11 13  1  0
  7  4  1  0
  1 14  1  0
  1 15  1  0
  1 16  1  0
  2 17  1  1
  3 18  1  0
  4 19  1  1
  5 20  1  0
  5 21  1  0
  6 22  1  0
  6 23  1  0
  8 24  1  0
  8 25  1  0
  9 26  1  1
 10 27  1  0
 13 28  1  0
M  END
$$$$

     RDKit          3D

 28 28  0  0  0  0  0  0  0  0999 V2000
   -2.1051    1.5090    0.6676 C   0  0  0  0  0  0  0  0  0  0  0  0
   -1.8198    0.9242   -0.6732 C   0  0  2  0  0  0  0  0  0  0  0  0
   -3.0089    0.7969   -1.3901 O   0  0  0  0  0  0  0  0  0  0  0  0
   -1.1685   -0.4248   -0.6198 C   0  0  2  0  0  0  0  0  0  0  0  0
   -1.6524   -1.3759    0.4161 C   0  0  0  0  0  0  0  0  0  0  0  0
   -0.1719   -1.6623    0.5845 C   0  0  0  0  0  0  0  0  0  0  0  0
    0.0776   -0.3326    0.1197 N   0  0  0  0  0  0  0  0  0  0  0  0
    1.1839   -0.1693   -0.7928 C   0  0  0  0  0  0  0  0  0  0  0  0
    2.5187   -0.4127   -0.1246 C   0  0  1  0  0  0  0  0  0  0  0  0
    3.5078   -0.2317   -1.0873 O   0  0  0  0  0  0  0  0  0  0  0  0
    2.7530    0.5229    0.9815 C   0  0  0  0  0  0  0  0  0  0  0  0
    3.7320    1.3109    0.9516 O   0  0  0  0  0  0  0  0  0  0  0  0
    1.9155    0.5813    2.0996 O   0  0  0  0  0  0  0  0  0  0  0  0
   -1.1452    1.5023    1.2637 H   0  0  0  0  0  0  0  0  0  0  0  0
   -2.3896    2.5763    0.5213 H   0  0  0  0  0  0  0  0  0  0  0  0
   -2.9028    0.9527    1.2047 H   0  0  0  0  0  0  0  0  0  0  0  0
   -1.1843    1.6435   -1.2397 H   0  0  0  0  0  0  0  0  0  0  0  0
   -2.8659    0.3656   -2.2767 H   0  0  0  0  0  0  0  0  0  0  0  0
   -1.0013   -0.9189   -1.5783 H   0  0  0  0  0  0  0  0  0  0  0  0
   -2.0546   -0.9398    1.3417 H   0  0  0  0  0  0  0  0  0  0  0  0
   -2.2162   -2.2589    0.0541 H   0  0  0  0  0  0  0  0  0  0  0  0
    0.1420   -1.8946    1.6239 H   0  0  0  0  0  0  0  0  0  0  0  0
    0.1590   -2.4056   -0.1791 H   0  0  0  0  0  0  0  0  0  0  0  0
    1.1074   -0.8411   -1.6542 H   0  0  0  0  0  0  0  0  0  0  0  0
    1.1423    0.8729   -1.1720 H   0  0  0  0  0  0  0  0  0  0  0  0
    2.5401   -1.4671    0.2381 H   0  0  0  0  0  0  0  0  0  0  0  0
    3.1538    0.3131   -1.8376 H   0  0  0  0  0  0  0  0  0  0  0  0
    1.7535    1.4637    2.5573 H   0  0  0  0  0  0  0  0  0  0  0  0
  1  2  1  0
  2  3  1  0
  2  4  1  0
  4  5  1  0
  5  6  1  0
  6  7  1  0
  7  8  1  0
  8  9  1  0
  9 10  1  0
  9 11  1  0
 11 12  2  0
 11 13  1  0
  7  4  1  0
  1 14  1  0
  1 15  1  0
  1 16  1  0
  2 17  1  6
  3 18  1  0
  4 19  1  6
  5 20  1  0
  5 21  1  0
  6 22  1  0
  6 23  1  0
  8 24  1  0
  8 25  1  0
  9 26  1  1
 10 27  1  0
 13 28  1  0
M  END
$$$$

     RDKit          3D

 28 28  0  0  0  0  0  0  0  0999 V2000
   -2.0890    0.7126    1.4348 C   0  0  0  0  0  0  0  0  0  0  0  0
   -2.4271    0.0383    0.1412 C   0  0  2  0  0  0  0  0  0  0  0  0
   -2.9028   -1.2396    0.3665 O   0  0  0  0  0  0  0  0  0  0  0  0
   -1.2460    0.0750   -0.7779 C   0  0  2  0  0  0  0  0  0  0  0  0
   -1.3457   -0.8602   -1.9675 C   0  0  0  0  0  0  0  0  0  0  0  0
    0.1477   -0.9437   -1.7785 C   0  0  0  0  0  0  0  0  0  0  0  0
   -0.0605   -0.6368   -0.3934 N   0  0  0  0  0  0  0  0  0  0  0  0
    0.9253    0.2044    0.2260 C   0  0  0  0  0  0  0  0  0  0  0  0
    2.2694   -0.4508    0.3791 C   0  0  1  0  0  0  0  0  0  0  0  0
    2.8710   -0.8522   -0.7793 O   0  0  0  0  0  0  0  0  0  0  0  0
    3.1526    0.5500    1.0691 C   0  0  0  0  0  0  0  0  0  0  0  0
    4.2587    0.8712    0.5585 O   0  0  0  0  0  0  0  0  0  0  0  0
    2.7809    1.1378    2.2672 O   0  0  0  0  0  0  0  0  0  0  0  0
   -1.5756    0.0226    2.1496 H   0  0  0  0  0  0  0  0  0  0  0  0
   -3.0484    0.9834    1.9713 H   0  0  0  0  0  0  0  0  0  0  0  0
   -1.4917    1.6178    1.3408 H   0  0  0  0  0  0  0  0  0  0  0  0
   -3.2141    0.6824   -0.3529 H   0  0  0  0  0  0  0  0  0  0  0  0
   -3.7315   -1.1505    0.8996 H   0  0  0  0  0  0  0  0  0  0  0  0
   -1.0233    1.1055   -1.0847 H   0  0  0  0  0  0  0  0  0  0  0  0
   -1.9087   -1.7940   -1.7716 H   0  0  0  0  0  0  0  0  0  0  0  0
   -1.7068   -0.3082   -2.8360 H   0  0  0  0  0  0  0  0  0  0  0  0
    0.5717   -1.9506   -1.9455 H   0  0  0  0  0  0  0  0  0  0  0  0
    0.6259   -0.1344   -2.3914 H   0  0  0  0  0  0  0  0  0  0  0  0
    1.0109    1.1683   -0.3137 H   0  0  0  0  0  0  0  0  0  0  0  0
    0.5781    0.4466    1.2454 H   0  0  0  0  0  0  0  0  0  0  0  0
    2.1973   -1.3080    1.0656 H   0  0  0  0  0  0  0  0  0  0  0  0
    3.3161   -0.0654   -1.2252 H   0  0  0  0  0  0  0  0  0  0  0  0
    3.0656    2.0785    2.5029 H   0  0  0  0  0  0  0  0  0  0  0  0
  1  2  1  0
  2  3  1  0
  2  4  1  0
  4  5  1  0
  5  6  1  0
  6  7  1  0
  7  8  1  0
  8  9  1  0
  9 10  1  0
  9 11  1  0
 11 12  2  0
 11 13  1  0
  7  4  1  0
  1 14  1  0
  1 15  1  0
  1 16  1  0
  2 17  1  6
  3 18  1  0
  4 19  1  6
  5 20  1  0
  5 21  1  0
  6 22  1  0
  6 23  1  0
  8 24  1  0
  8 25  1  0
  9 26  1  1
 10 27  1  0
 13 28  1  0
M  END
$$$$

     RDKit          3D

 28 28  0  0  0  0  0  0  0  0999 V2000
   -2.7818    0.8804    0.3202 C   0  0  0  0  0  0  0  0  0  0  0  0
   -1.5771    1.1646   -0.5469 C   0  0  2  0  0  0  0  0  0  0  0  0
   -2.0721    1.3727   -1.8423 O   0  0  0  0  0  0  0  0  0  0  0  0
   -0.6485   -0.0406   -0.6650 C   0  0  2  0  0  0  0  0  0  0  0  0
   -1.4905   -1.2824   -0.7170 C   0  0  0  0  0  0  0  0  0  0  0  0
   -0.7523   -1.7018    0.4918 C   0  0  0  0  0  0  0  0  0  0  0  0
   -0.0019   -0.4738    0.4807 N   0  0  0  0  0  0  0  0  0  0  0  0
    1.3742   -0.7538    0.5823 C   0  0  0  0  0  0  0  0  0  0  0  0
    2.3382    0.3848    0.7320 C   0  0  1  0  0  0  0  0  0  0  0  0
    3.6611   -0.1745    0.8637 O   0  0  0  0  0  0  0  0  0  0  0  0
    2.4174    1.2466   -0.4594 C   0  0  0  0  0  0  0  0  0  0  0  0
    1.5098    2.0306   -0.7880 O   0  0  0  0  0  0  0  0  0  0  0  0
    3.5413    1.2377   -1.3137 O   0  0  0  0  0  0  0  0  0  0  0  0
   -3.6501    0.5775   -0.2951 H   0  0  0  0  0  0  0  0  0  0  0  0
   -2.5194    0.1744    1.1190 H   0  0  0  0  0  0  0  0  0  0  0  0
   -3.0938    1.8683    0.7698 H   0  0  0  0  0  0  0  0  0  0  0  0
   -1.1031    2.0764   -0.2078 H   0  0  0  0  0  0  0  0  0  0  0  0
   -2.0753    0.5203   -2.3662 H   0  0  0  0  0  0  0  0  0  0  0  0
   -0.0711    0.0593   -1.6172 H   0  0  0  0  0  0  0  0  0  0  0  0
   -1.3405   -1.8859   -1.6438 H   0  0  0  0  0  0  0  0  0  0  0  0
   -2.5683   -1.1308   -0.4587 H   0  0  0  0  0  0  0  0  0  0  0  0
   -1.3666   -1.8664    1.4123 H   0  0  0  0  0  0  0  0  0  0  0  0
   -0.1153   -2.6143    0.2750 H   0  0  0  0  0  0  0  0  0  0  0  0
    1.5198   -1.3769    1.5275 H   0  0  0  0  0  0  0  0  0  0  0  0
    1.7281   -1.4698   -0.2187 H   0  0  0  0  0  0  0  0  0  0  0  0
    2.1273    0.9716    1.6552 H   0  0  0  0  0  0  0  0  0  0  0  0
    3.6287   -1.0951    0.5192 H   0  0  0  0  0  0  0  0  0  0  0  0
    3.3816    1.3009   -2.3350 H   0  0  0  0  0  0  0  0  0  0  0  0
  1  2  1  0
  2  3  1  0
  2  4  1  0
  4  5  1  0
  5  6  1  0
  6  7  1  0
  7  8  1  0
  8  9  1  0
  9 10  1  0
  9 11  1  0
 11 12  2  0
 11 13  1  0
  7  4  1  0
  1 14  1  0
  1 15  1  0
  1 16  1  0
  2 17  1  1
  3 18  1  0
  4 19  1  6
  5 20  1  0
  5 21  1  0
  6 22  1  0
  6 23  1  0
  8 24  1  0
  8 25  1  0
  9 26  1  1
 10 27  1  0
 13 28  1  0
M  END
$$$$

     RDKit          3D

 28 28  0  0  0  0  0  0  0  0999 V2000
   -2.8116    1.5158   -0.2307 C   0  0  0  0  0  0  0  0  0  0  0  0
   -1.5130    1.2459    0.4995 C   0  0  2  0  0  0  0  0  0  0  0  0
   -0.6459    2.2915    0.2225 O   0  0  0  0  0  0  0  0  0  0  0  0
   -0.9454   -0.0853    0.0741 C   0  0  2  0  0  0  0  0  0  0  0  0
   -1.5720   -1.2402    0.8703 C   0  0  0  0  0  0  0  0  0  0  0  0
   -0.3952   -0.9719    1.7988 C   0  0  0  0  0  0  0  0  0  0  0  0
    0.2623   -0.4524    0.6794 N   0  0  0  0  0  0  0  0  0  0  0  0
    1.2841   -1.1184   -0.0008 C   0  0  0  0  0  0  0  0  0  0  0  0
    1.7250   -0.2051   -1.1579 C   0  0  1  0  0  0  0  0  0  0  0  0
    2.1696    0.9787   -0.5949 O   0  0  0  0  0  0  0  0  0  0  0  0
    2.8018   -0.8205   -1.9362 C   0  0  0  0  0  0  0  0  0  0  0  0
    2.5922   -1.9086   -2.5274 O   0  0  0  0  0  0  0  0  0  0  0  0
    4.0272   -0.1970   -2.0080 O   0  0  0  0  0  0  0  0  0  0  0  0
   -2.6584    1.5498   -1.3286 H   0  0  0  0  0  0  0  0  0  0  0  0
   -3.5156    0.6753   -0.0019 H   0  0  0  0  0  0  0  0  0  0  0  0
   -3.2652    2.4542    0.1365 H   0  0  0  0  0  0  0  0  0  0  0  0
   -1.7507    1.2055    1.5804 H   0  0  0  0  0  0  0  0  0  0  0  0
   -0.8752    3.0373    0.8492 H   0  0  0  0  0  0  0  0  0  0  0  0
   -1.0748   -0.3167   -1.0038 H   0  0  0  0  0  0  0  0  0  0  0  0
   -1.5428   -2.2119    0.3551 H   0  0  0  0  0  0  0  0  0  0  0  0
   -2.5198   -0.9234    1.3086 H   0  0  0  0  0  0  0  0  0  0  0  0
   -0.6601   -0.2130    2.5738 H   0  0  0  0  0  0  0  0  0  0  0  0
   -0.0603   -1.9111    2.2480 H   0  0  0  0  0  0  0  0  0  0  0  0
    1.0234   -2.0823   -0.4675 H   0  0  0  0  0  0  0  0  0  0  0  0
    2.1657   -1.2800    0.6404 H   0  0  0  0  0  0  0  0  0  0  0  0
    0.8713   -0.0227   -1.8450 H   0  0  0  0  0  0  0  0  0  0  0  0
    2.0489    1.7637   -1.1499 H   0  0  0  0  0  0  0  0  0  0  0  0
    4.8343   -0.7575   -2.3073 H   0  0  0  0  0  0  0  0  0  0  0  0
  1  2  1  0
  2  3  1  0
  2  4  1  0
  4  5  1  0
  5  6  1  0
  6  7  1  0
  7  8  1  0
  8  9  1  0
  9 10  1  0
  9 11  1  0
 11 12  2  0
 11 13  1  0
  7  4  1  0
  1 14  1  0
  1 15  1  0
  1 16  1  0
  2 17  1  1
  3 18  1  0
  4 19  1  6
  5 20  1  0
  5 21  1  0
  6 22  1  0
  6 23  1  0
  8 24  1  0
  8 25  1  0
  9 26  1  6
 10 27  1  0
 13 28  1  0
M  END
$$$$

     RDKit          3D

 28 28  0  0  0  0  0  0  0  0999 V2000
   -2.6059    1.1370   -0.9543 C   0  0  0  0  0  0  0  0  0  0  0  0
   -2.0676   -0.2448   -1.0981 C   0  0  2  0  0  0  0  0  0  0  0  0
   -3.1528   -1.1477   -1.1398 O   0  0  0  0  0  0  0  0  0  0  0  0
   -1.1431   -0.6732   -0.0146 C   0  0  2  0  0  0  0  0  0  0  0  0
   -1.4781   -0.1661    1.3902 C   0  0  0  0  0  0  0  0  0  0  0  0
    0.0603   -0.0929    1.4551 C   0  0  0  0  0  0  0  0  0  0  0  0
    0.0100    0.2380    0.0711 N   0  0  0  0  0  0  0  0  0  0  0  0
    1.0366   -0.1837   -0.8099 C   0  0  0  0  0  0  0  0  0  0  0  0
    2.3761    0.4519   -0.6077 C   0  0  1  0  0  0  0  0  0  0  0  0
    2.3127    1.8197   -0.7519 O   0  0  0  0  0  0  0  0  0  0  0  0
    2.9170   -0.0022    0.6941 C   0  0  0  0  0  0  0  0  0  0  0  0
    2.9992   -1.2454    0.8657 O   0  0  0  0  0  0  0  0  0  0  0  0
    3.3184    0.8557    1.6869 O   0  0  0  0  0  0  0  0  0  0  0  0
   -1.7662    1.8556   -0.8476 H   0  0  0  0  0  0  0  0  0  0  0  0
   -3.1823    1.3940   -1.8802 H   0  0  0  0  0  0  0  0  0  0  0  0
   -3.2872    1.1584   -0.0578 H   0  0  0  0  0  0  0  0  0  0  0  0
   -1.5952   -0.3254   -2.1076 H   0  0  0  0  0  0  0  0  0  0  0  0
   -2.8218   -2.0839   -1.0781 H   0  0  0  0  0  0  0  0  0  0  0  0
   -0.8879   -1.7268    0.0428 H   0  0  0  0  0  0  0  0  0  0  0  0
   -1.9289   -0.9053    2.0596 H   0  0  0  0  0  0  0  0  0  0  0  0
   -1.8928    0.8477    1.3817 H   0  0  0  0  0  0  0  0  0  0  0  0
    0.4025    0.6992    2.1450 H   0  0  0  0  0  0  0  0  0  0  0  0
    0.4133   -1.0862    1.7462 H   0  0  0  0  0  0  0  0  0  0  0  0
    0.7035    0.1024   -1.8506 H   0  0  0  0  0  0  0  0  0  0  0  0
    1.1964   -1.2957   -0.8131 H   0  0  0  0  0  0  0  0  0  0  0  0
    3.0544    0.0433   -1.4034 H   0  0  0  0  0  0  0  0  0  0  0  0
    3.1847    2.2515   -0.6263 H   0  0  0  0  0  0  0  0  0  0  0  0
    3.8245    0.5688    2.5027 H   0  0  0  0  0  0  0  0  0  0  0  0
  1  2  1  0
  2  3  1  0
  2  4  1  0
  4  5  1  0
  5  6  1  0
  6  7  1  0
  7  8  1  0
  8  9  1  0
  9 10  1  0
  9 11  1  0
 11 12  2  0
 11 13  1  0
  7  4  1  0
  1 14  1  0
  1 15  1  0
  1 16  1  0
  2 17  1  6
  3 18  1  0
  4 19  1  1
  5 20  1  0
  5 21  1  0
  6 22  1  0
  6 23  1  0
  8 24  1  0
  8 25  1  0
  9 26  1  6
 10 27  1  0
 13 28  1  0
M  END
$$$$

     RDKit          3D

 28 28  0  0  0  0  0  0  0  0999 V2000
   -2.5825   -0.4411   -1.5813 C   0  0  0  0  0  0  0  0  0  0  0  0
   -2.2792   -0.8308   -0.1799 C   0  0  2  0  0  0  0  0  0  0  0  0
   -3.4634   -0.9684    0.5711 O   0  0  0  0  0  0  0  0  0  0  0  0
   -1.3316    0.0432    0.5588 C   0  0  2  0  0  0  0  0  0  0  0  0
   -1.5849    1.5320    0.5293 C   0  0  0  0  0  0  0  0  0  0  0  0
   -0.0513    1.5750    0.6525 C   0  0  0  0  0  0  0  0  0  0  0  0
   -0.0703    0.3082   -0.0545 N   0  0  0  0  0  0  0  0  0  0  0  0
    1.0424   -0.5270    0.2391 C   0  0  0  0  0  0  0  0  0  0  0  0
    2.2845    0.1440   -0.3593 C   0  0  1  0  0  0  0  0  0  0  0  0
    2.5074    1.3960    0.1728 O   0  0  0  0  0  0  0  0  0  0  0  0
    3.4699   -0.7320   -0.3086 C   0  0  0  0  0  0  0  0  0  0  0  0
    4.5517   -0.3002    0.1971 O   0  0  0  0  0  0  0  0  0  0  0  0
    3.3489   -2.0153   -0.8268 O   0  0  0  0  0  0  0  0  0  0  0  0
   -1.9230   -1.0346   -2.2711 H   0  0  0  0  0  0  0  0  0  0  0  0
   -3.6537   -0.7201   -1.8046 H   0  0  0  0  0  0  0  0  0  0  0  0
   -2.5010    0.6292   -1.7951 H   0  0  0  0  0  0  0  0  0  0  0  0
   -1.8212   -1.8630   -0.1630 H   0  0  0  0  0  0  0  0  0  0  0  0
   -3.2543   -1.0029    1.5322 H   0  0  0  0  0  0  0  0  0  0  0  0
   -1.2887   -0.2849    1.6258 H   0  0  0  0  0  0  0  0  0  0  0  0
   -2.1149    1.9345    1.4126 H   0  0  0  0  0  0  0  0  0  0  0  0
   -1.8495    1.9540   -0.4402 H   0  0  0  0  0  0  0  0  0  0  0  0
    0.2249    1.4256    1.7297 H   0  0  0  0  0  0  0  0  0  0  0  0
    0.4126    2.4133    0.1346 H   0  0  0  0  0  0  0  0  0  0  0  0
    0.9597   -1.5555   -0.1435 H   0  0  0  0  0  0  0  0  0  0  0  0
    1.2522   -0.5822    1.3334 H   0  0  0  0  0  0  0  0  0  0  0  0
    2.0537    0.3138   -1.4523 H   0  0  0  0  0  0  0  0  0  0  0  0
    3.4245    1.6768    0.0198 H   0  0  0  0  0  0  0  0  0  0  0  0
    4.2371   -2.4876   -1.0562 H   0  0  0  0  0  0  0  0  0  0  0  0
  1  2  1  0
  2  3  1  0
  2  4  1  0
  4  5  1  0
  5  6  1  0
  6  7  1  0
  7  8  1  0
  8  9  1  0
  9 10  1  0
  9 11  1  0
 11 12  2  0
 11 13  1  0
  7  4  1  0
  1 14  1  0
  1 15  1  0
  1 16  1  0
  2 17  1  6
  3 18  1  0
  4 19  1  1
  5 20  1  0
  5 21  1  0
  6 22  1  0
  6 23  1  0
  8 24  1  0
  8 25  1  0
  9 26  1  6
 10 27  1  0
 13 28  1  0
M  END
$$$$
