
     RDKit          3D

 28 29  0  0  0  0  0  0  0  0999 V2000
   -2.5522   -1.7003   -1.5395 O   0  0  0  0  0  0  0  0  0  0  0  0
   -2.1234   -1.1760   -0.2968 C   0  0  2  0  0  0  0  0  0  0  0  0
   -2.5911    0.2277   -0.2284 C   0  0  0  0  0  0  0  0  0  0  0  0
   -1.8139    1.1300    0.6551 C   0  0  1  0  0  0  0  0  0  0  0  0
   -2.6821    1.7449    1.5812 O   0  0  0  0  0  0  0  0  0  0  0  0
   -0.7068    0.4737    1.4175 C   0  0  0  0  0  0  0  0  0  0  0  0
    0.0538   -0.3272    0.4774 N   0  0  0  0  0  0  0  0  0  0  0  0
    1.4435   -0.0950    0.2496 C   0  0  0  0  0  0  0  0  0  0  0  0
    2.2330    0.6286    0.9662 N   0  0  0  0  0  0  0  0  0  0  0  0
    3.5771    0.6299    0.4266 C   0  0  0  0  0  0  0  0  0  0  0  0
    3.3484    0.2005   -1.0111 C   0  0  0  0  0  0  0  0  0  0  0  0
    2.1779   -0.6514   -0.8418 N   0  0  0  0  0  0  0  0  0  0  0  0
   -0.6509   -1.3731   -0.2227 C   0  0  0  0  0  0  0  0  0  0  0  0
   -1.9293   -1.2680   -2.2076 H   0  0  0  0  0  0  0  0  0  0  0  0
   -2.6024   -1.8310    0.4802 H   0  0  0  0  0  0  0  0  0  0  0  0
   -3.6763    0.2078    0.0853 H   0  0  0  0  0  0  0  0  0  0  0  0
   -2.6241    0.6831   -1.2584 H   0  0  0  0  0  0  0  0  0  0  0  0
   -1.3445    1.9765    0.0730 H   0  0  0  0  0  0  0  0  0  0  0  0
   -3.0816    2.5157    1.1356 H   0  0  0  0  0  0  0  0  0  0  0  0
   -1.1235   -0.1434    2.2396 H   0  0  0  0  0  0  0  0  0  0  0  0
   -0.0691    1.2669    1.8559 H   0  0  0  0  0  0  0  0  0  0  0  0
    4.0532    1.6296    0.4608 H   0  0  0  0  0  0  0  0  0  0  0  0
    4.1714   -0.1477    0.9166 H   0  0  0  0  0  0  0  0  0  0  0  0
    4.1980   -0.3803   -1.4197 H   0  0  0  0  0  0  0  0  0  0  0  0
    3.0622    1.0505   -1.6654 H   0  0  0  0  0  0  0  0  0  0  0  0
    1.8824   -1.4872   -1.3597 H   0  0  0  0  0  0  0  0  0  0  0  0
   -0.2203   -1.4368   -1.2435 H   0  0  0  0  0  0  0  0  0  0  0  0
   -0.4094   -2.3481    0.2739 H   0  0  0  0  0  0  0  0  0  0  0  0
  1  2  1  0
  2  3  1  0
  3  4  1  0
  4  5  1  0
  4  6  1  0
  6  7  1  0
  7  8  1  0
  8  9  2  0
  9 10  1  0
 10 11  1  0
 11 12  1  0
  7 13  1  0
 13  2  1  0
 12  8  1  0
  1 14  1  0
  2 15  1  1
  3 16  1  0
  3 17  1  0
  4 18  1  6
  5 19  1  0
  6 20  1  0
  6 21  1  0
 10 22  1  0
 10 23  1  0
 11 24  1  0
 11 25  1  0
 12 26  1  0
 13 27  1  0
 13 28  1  0
M  END
$$$$

     RDKit          3D

 28 29  0  0  0  0  0  0  0  0999 V2000
   -2.9658   -1.2431    1.6269 O   0  0  0  0  0  0  0  0  0  0  0  0
   -2.1335   -0.1328    1.3498 C   0  0  2  0  0  0  0  0  0  0  0  0
   -2.7614    0.6071    0.2179 C   0  0  0  0  0  0  0  0  0  0  0  0
   -2.0840    0.1687   -1.0626 C   0  0  1  0  0  0  0  0  0  0  0  0
   -2.7448    0.6189   -2.1885 O   0  0  0  0  0  0  0  0  0  0  0  0
   -0.6543    0.7200   -0.9884 C   0  0  0  0  0  0  0  0  0  0  0  0
   -0.0164    0.0269    0.1024 N   0  0  0  0  0  0  0  0  0  0  0  0
    1.4062    0.0148    0.1912 C   0  0  0  0  0  0  0  0  0  0  0  0
    2.1538    0.1048    1.2201 N   0  0  0  0  0  0  0  0  0  0  0  0
    3.5638    0.0557    0.9291 C   0  0  0  0  0  0  0  0  0  0  0  0
    3.6340   -0.3524   -0.5042 C   0  0  0  0  0  0  0  0  0  0  0  0
    2.2806   -0.1098   -0.9495 N   0  0  0  0  0  0  0  0  0  0  0  0
   -0.7688   -0.6531    1.1036 C   0  0  0  0  0  0  0  0  0  0  0  0
   -2.6621   -1.9747    0.9999 H   0  0  0  0  0  0  0  0  0  0  0  0
   -2.1333    0.4719    2.2937 H   0  0  0  0  0  0  0  0  0  0  0  0
   -3.8555    0.4625    0.1339 H   0  0  0  0  0  0  0  0  0  0  0  0
   -2.5301    1.7006    0.3705 H   0  0  0  0  0  0  0  0  0  0  0  0
   -1.9866   -0.9383   -1.0944 H   0  0  0  0  0  0  0  0  0  0  0  0
   -2.2730    0.2486   -2.9724 H   0  0  0  0  0  0  0  0  0  0  0  0
   -0.7091    1.8215   -0.7796 H   0  0  0  0  0  0  0  0  0  0  0  0
   -0.1308    0.5938   -1.9546 H   0  0  0  0  0  0  0  0  0  0  0  0
    3.9976   -0.7847    1.5433 H   0  0  0  0  0  0  0  0  0  0  0  0
    4.0850    0.9986    1.1607 H   0  0  0  0  0  0  0  0  0  0  0  0
    4.3526    0.3030   -1.0330 H   0  0  0  0  0  0  0  0  0  0  0  0
    3.8934   -1.4315   -0.6286 H   0  0  0  0  0  0  0  0  0  0  0  0
    2.0065   -0.0399   -1.9623 H   0  0  0  0  0  0  0  0  0  0  0  0
   -0.1768   -0.6170    2.0643 H   0  0  0  0  0  0  0  0  0  0  0  0
   -0.7870   -1.7434    0.8108 H   0  0  0  0  0  0  0  0  0  0  0  0
  1  2  1  0
  2  3  1  0
  3  4  1  0
  4  5  1  0
  4  6  1  0
  6  7  1  0
  7  8  1  0
  8  9  2  0
  9 10  1  0
 10 11  1  0
 11 12  1  0
  7 13  1  0
 13  2  1  0
 12  8  1  0
  1 14  1  0
  2 15  1  1
  3 16  1  0
  3 17  1  0
  4 18  1  6
  5 19  1  0
  6 20  1  0
  6 21  1  0
 10 22  1  0
 10 23  1  0
 11 24  1  0
 11 25  1  0
 12 26  1  0
 13 27  1  0
 13 28  1  0
M  END
$$$$

     RDKit          3D

 28 29  0  0  0  0  0  0  0  0999 V2000
   -2.7394   -2.1788    0.7894 O   0  0  0  0  0  0  0  0  0  0  0  0
   -2.1280   -0.9264    0.7847 C   0  0  2  0  0  0  0  0  0  0  0  0
   -2.7151   -0.0931   -0.3460 C   0  0  0  0  0  0  0  0  0  0  0  0
   -1.9477    1.1637   -0.5983 C   0  0  1  0  0  0  0  0  0  0  0  0
   -2.8327    2.2446   -0.5028 O   0  0  0  0  0  0  0  0  0  0  0  0
   -0.7563    1.3347    0.3196 C   0  0  0  0  0  0  0  0  0  0  0  0
    0.0132    0.1325    0.2715 N   0  0  0  0  0  0  0  0  0  0  0  0
    1.4112    0.1172   -0.0035 C   0  0  0  0  0  0  0  0  0  0  0  0
    2.1356    1.1798   -0.1964 N   0  0  0  0  0  0  0  0  0  0  0  0
    3.5120    0.8194   -0.4512 C   0  0  0  0  0  0  0  0  0  0  0  0
    3.5841   -0.5764    0.1270 C   0  0  0  0  0  0  0  0  0  0  0  0
    2.2313   -1.0411   -0.1082 N   0  0  0  0  0  0  0  0  0  0  0  0
   -0.6772   -1.1192    0.5160 C   0  0  0  0  0  0  0  0  0  0  0  0
   -2.0735   -2.9004    1.0186 H   0  0  0  0  0  0  0  0  0  0  0  0
   -2.2889   -0.3969    1.7584 H   0  0  0  0  0  0  0  0  0  0  0  0
   -3.7924    0.0776   -0.1476 H   0  0  0  0  0  0  0  0  0  0  0  0
   -2.6351   -0.7479   -1.2610 H   0  0  0  0  0  0  0  0  0  0  0  0
   -1.5362    1.2119   -1.6427 H   0  0  0  0  0  0  0  0  0  0  0  0
   -2.5343    2.8368    0.2307 H   0  0  0  0  0  0  0  0  0  0  0  0
   -0.2189    2.2412    0.0584 H   0  0  0  0  0  0  0  0  0  0  0  0
   -1.1920    1.4856    1.3506 H   0  0  0  0  0  0  0  0  0  0  0  0
    4.2286    1.5042    0.0431 H   0  0  0  0  0  0  0  0  0  0  0  0
    3.6840    0.7361   -1.5440 H   0  0  0  0  0  0  0  0  0  0  0  0
    4.3348   -1.2038   -0.3932 H   0  0  0  0  0  0  0  0  0  0  0  0
    3.7664   -0.5500    1.2288 H   0  0  0  0  0  0  0  0  0  0  0  0
    1.8697   -1.9938   -0.3133 H   0  0  0  0  0  0  0  0  0  0  0  0
   -0.5735   -1.7225   -0.4203 H   0  0  0  0  0  0  0  0  0  0  0  0
   -0.1298   -1.6348    1.3184 H   0  0  0  0  0  0  0  0  0  0  0  0
  1  2  1  0
  2  3  1  0
  3  4  1  0
  4  5  1  0
  4  6  1  0
  6  7  1  0
  7  8  1  0
  8  9  2  0
  9 10  1  0
 10 11  1  0
 11 12  1  0
  7 13  1  0
 13  2  1  0
 12  8  1  0
  1 14  1  0
  2 15  1  1
  3 16  1  0
  3 17  1  0
  4 18  1  6
  5 19  1  0
  6 20  1  0
  6 21  1  0
 10 22  1  0
 10 23  1  0
 11 24  1  0
 11 25  1  0
 12 26  1  0
 13 27  1  0
 13 28  1  0
M  END
$$$$

     RDKit          3D

 28 29  0  0  0  0  0  0  0  0999 V2000
   -2.7332   -2.4548    0.1247 O   0  0  0  0  0  0  0  0  0  0  0  0
   -1.9784   -1.3332    0.5031 C   0  0  2  0  0  0  0  0  0  0  0  0
   -2.8125   -0.1029    0.4191 C   0  0  0  0  0  0  0  0  0  0  0  0
   -2.1685    1.0617   -0.2394 C   0  0  1  0  0  0  0  0  0  0  0  0
   -2.7499    2.2323    0.2721 O   0  0  0  0  0  0  0  0  0  0  0  0
   -0.6979    1.1601   -0.0590 C   0  0  0  0  0  0  0  0  0  0  0  0
   -0.0041   -0.0944   -0.1676 N   0  0  0  0  0  0  0  0  0  0  0  0
    1.4271   -0.0616   -0.0879 C   0  0  0  0  0  0  0  0  0  0  0  0
    2.1650   -1.0125    0.3595 N   0  0  0  0  0  0  0  0  0  0  0  0
    3.5611   -0.6869    0.3140 C   0  0  0  0  0  0  0  0  0  0  0  0
    3.6068    0.7862    0.0006 C   0  0  0  0  0  0  0  0  0  0  0  0
    2.2549    1.0009   -0.4799 N   0  0  0  0  0  0  0  0  0  0  0  0
   -0.7397   -1.3033   -0.3469 C   0  0  0  0  0  0  0  0  0  0  0  0
   -2.3257   -3.2930    0.4573 H   0  0  0  0  0  0  0  0  0  0  0  0
   -1.6567   -1.5370    1.5533 H   0  0  0  0  0  0  0  0  0  0  0  0
   -3.7505   -0.3388   -0.1494 H   0  0  0  0  0  0  0  0  0  0  0  0
   -3.1710    0.1418    1.4544 H   0  0  0  0  0  0  0  0  0  0  0  0
   -2.3762    1.0638   -1.3422 H   0  0  0  0  0  0  0  0  0  0  0  0
   -2.1260    3.0012    0.0922 H   0  0  0  0  0  0  0  0  0  0  0  0
   -0.4544    1.6119    0.9158 H   0  0  0  0  0  0  0  0  0  0  0  0
   -0.2893    1.8175   -0.8794 H   0  0  0  0  0  0  0  0  0  0  0  0
    4.0257   -0.9061    1.3141 H   0  0  0  0  0  0  0  0  0  0  0  0
    4.0769   -1.3049   -0.4450 H   0  0  0  0  0  0  0  0  0  0  0  0
    3.7366    1.3916    0.9229 H   0  0  0  0  0  0  0  0  0  0  0  0
    4.3464    1.0025   -0.7677 H   0  0  0  0  0  0  0  0  0  0  0  0
    1.9514    1.8320   -1.0377 H   0  0  0  0  0  0  0  0  0  0  0  0
   -0.1103   -2.1799   -0.0389 H   0  0  0  0  0  0  0  0  0  0  0  0
   -1.0077   -1.4941   -1.4096 H   0  0  0  0  0  0  0  0  0  0  0  0
  1  2  1  0
  2  3  1  0
  3  4  1  0
  4  5  1  0
  4  6  1  0
  6  7  1  0
  7  8  1  0
  8  9  2  0
  9 10  1  0
 10 11  1  0
 11 12  1  0
  7 13  1  0
 13  2  1  0
 12  8  1  0
  1 14  1  0
  2 15  1  1
  3 16  1  0
  3 17  1  0
  4 18  1  6
  5 19  1  0
  6 20  1  0
  6 21  1  0
 10 22  1  0
 10 23  1  0
 11 24  1  0
 11 25  1  0
 12 26  1  0
 13 27  1  0
 13 28  1  0
M  END
$$$$

     RDKit          3D

 28 29  0  0  0  0  0  0  0  0999 V2000
   -2.4027    0.3873    1.6274 O   0  0  0  0  0  0  0  0  0  0  0  0
   -2.1993    1.1568    0.4763 C   0  0  2  0  0  0  0  0  0  0  0  0
   -2.5902    0.2847   -0.7244 C   0  0  0  0  0  0  0  0  0  0  0  0
   -2.0136   -1.0709   -0.4971 C   0  0  1  0  0  0  0  0  0  0  0  0
   -2.0559   -1.7518   -1.7356 O   0  0  0  0  0  0  0  0  0  0  0  0
   -0.6597   -1.0995    0.0952 C   0  0  0  0  0  0  0  0  0  0  0  0
   -0.0110    0.1737    0.2193 N   0  0  0  0  0  0  0  0  0  0  0  0
    1.4310    0.2378    0.2446 C   0  0  0  0  0  0  0  0  0  0  0  0
    2.1615    1.2969    0.3557 N   0  0  0  0  0  0  0  0  0  0  0  0
    3.5583    1.0118    0.3469 C   0  0  0  0  0  0  0  0  0  0  0  0
    3.6023   -0.3813   -0.2593 C   0  0  0  0  0  0  0  0  0  0  0  0
    2.3089   -0.8993    0.1475 N   0  0  0  0  0  0  0  0  0  0  0  0
   -0.7400    1.4313    0.3235 C   0  0  0  0  0  0  0  0  0  0  0  0
   -3.3640    0.1939    1.6704 H   0  0  0  0  0  0  0  0  0  0  0  0
   -2.7563    2.0948    0.4791 H   0  0  0  0  0  0  0  0  0  0  0  0
   -2.0755    0.7276   -1.6150 H   0  0  0  0  0  0  0  0  0  0  0  0
   -3.6719    0.2524   -0.8547 H   0  0  0  0  0  0  0  0  0  0  0  0
   -2.7466   -1.6356    0.1510 H   0  0  0  0  0  0  0  0  0  0  0  0
   -2.2127   -2.7241   -1.5738 H   0  0  0  0  0  0  0  0  0  0  0  0
    0.0027   -1.7291   -0.5683 H   0  0  0  0  0  0  0  0  0  0  0  0
   -0.6796   -1.6586    1.0663 H   0  0  0  0  0  0  0  0  0  0  0  0
    3.9210    1.0114    1.3965 H   0  0  0  0  0  0  0  0  0  0  0  0
    4.0643    1.7637   -0.2895 H   0  0  0  0  0  0  0  0  0  0  0  0
    3.5918   -0.2618   -1.3655 H   0  0  0  0  0  0  0  0  0  0  0  0
    4.4468   -0.9705    0.1106 H   0  0  0  0  0  0  0  0  0  0  0  0
    2.0100   -1.8808    0.3452 H   0  0  0  0  0  0  0  0  0  0  0  0
   -0.5963    1.9417   -0.6680 H   0  0  0  0  0  0  0  0  0  0  0  0
   -0.3233    2.0973    1.0959 H   0  0  0  0  0  0  0  0  0  0  0  0
  1  2  1  0
  2  3  1  0
  3  4  1  0
  4  5  1  0
  4  6  1  0
  6  7  1  0
  7  8  1  0
  8  9  2  0
  9 10  1  0
 10 11  1  0
 11 12  1  0
  7 13  1  0
 13  2  1  0
 12  8  1  0
  1 14  1  0
  2 15  1  1
  3 16  1  0
  3 17  1  0
  4 18  1  1
  5 19  1  0
  6 20  1  0
  6 21  1  0
 10 22  1  0
 10 23  1  0
 11 24  1  0
 11 25  1  0
 12 26  1  0
 13 27  1  0
 13 28  1  0
M  END
$$$$

     RDKit          3D

 28 29  0  0  0  0  0  0  0  0999 V2000
   -2.8412    0.6979   -2.0730 O   0  0  0  0  0  0  0  0  0  0  0  0
   -2.2656   -0.0667   -1.0356 C   0  0  2  0  0  0  0  0  0  0  0  0
   -2.5352    0.6863    0.2452 C   0  0  0  0  0  0  0  0  0  0  0  0
   -1.9696   -0.0137    1.4470 C   0  0  1  0  0  0  0  0  0  0  0  0
   -2.8528   -1.0607    1.7627 O   0  0  0  0  0  0  0  0  0  0  0  0
   -0.5892   -0.5524    1.2395 C   0  0  0  0  0  0  0  0  0  0  0  0
   -0.0284   -0.3131   -0.0410 N   0  0  0  0  0  0  0  0  0  0  0  0
    1.3940   -0.3069   -0.1834 C   0  0  0  0  0  0  0  0  0  0  0  0
    2.1903   -1.2558   -0.4797 N   0  0  0  0  0  0  0  0  0  0  0  0
    3.5699   -0.8136   -0.5186 C   0  0  0  0  0  0  0  0  0  0  0  0
    3.5150    0.4845    0.2597 C   0  0  0  0  0  0  0  0  0  0  0  0
    2.1470    0.9072    0.0166 N   0  0  0  0  0  0  0  0  0  0  0  0
   -0.7850   -0.0666   -1.2570 C   0  0  0  0  0  0  0  0  0  0  0  0
   -2.3749    1.5920   -2.1090 H   0  0  0  0  0  0  0  0  0  0  0  0
   -2.7286   -1.0574   -1.0650 H   0  0  0  0  0  0  0  0  0  0  0  0
   -3.6116    0.8532    0.4171 H   0  0  0  0  0  0  0  0  0  0  0  0
   -1.9929    1.6693    0.1495 H   0  0  0  0  0  0  0  0  0  0  0  0
   -2.0317    0.6996    2.3000 H   0  0  0  0  0  0  0  0  0  0  0  0
   -2.4721   -1.9372    1.5292 H   0  0  0  0  0  0  0  0  0  0  0  0
    0.0756   -0.0738    2.0143 H   0  0  0  0  0  0  0  0  0  0  0  0
   -0.5674   -1.6342    1.4685 H   0  0  0  0  0  0  0  0  0  0  0  0
    4.2702   -1.5455   -0.0727 H   0  0  0  0  0  0  0  0  0  0  0  0
    3.8503   -0.5448   -1.5667 H   0  0  0  0  0  0  0  0  0  0  0  0
    3.5956    0.2637    1.3335 H   0  0  0  0  0  0  0  0  0  0  0  0
    4.2438    1.2327   -0.0986 H   0  0  0  0  0  0  0  0  0  0  0  0
    1.7590    1.8839   -0.0131 H   0  0  0  0  0  0  0  0  0  0  0  0
   -0.5075    0.9829   -1.5704 H   0  0  0  0  0  0  0  0  0  0  0  0
   -0.4572   -0.7107   -2.0988 H   0  0  0  0  0  0  0  0  0  0  0  0
  1  2  1  0
  2  3  1  0
  3  4  1  0
  4  5  1  0
  4  6  1  0
  6  7  1  0
  7  8  1  0
  8  9  2  0
  9 10  1  0
 10 11  1  0
 11 12  1  0
  7 13  1  0
 13  2  1  0
 12  8  1  0
  1 14  1  0
  2 15  1  1
  3 16  1  0
  3 17  1  0
  4 18  1  1
  5 19  1  0
  6 20  1  0
  6 21  1  0
 10 22  1  0
 10 23  1  0
 11 24  1  0
 11 25  1  0
 12 26  1  0
 13 27  1  0
 13 28  1  0
M  END
$$$$

     RDKit          3D

 28 29  0  0  0  0  0  0  0  0999 V2000
   -2.7199   -1.9987   -1.1551 O   0  0  0  0  0  0  0  0  0  0  0  0
   -2.0106   -1.1187   -0.3406 C   0  0  2  0  0  0  0  0  0  0  0  0
   -2.7746    0.1461   -0.1416 C   0  0  0  0  0  0  0  0  0  0  0  0
   -1.9407    1.3608   -0.5480 C   0  0  1  0  0  0  0  0  0  0  0  0
   -2.6117    2.5319   -0.2908 O   0  0  0  0  0  0  0  0  0  0  0  0
   -0.6450    1.2610    0.2439 C   0  0  0  0  0  0  0  0  0  0  0  0
    0.0912    0.1486   -0.3170 N   0  0  0  0  0  0  0  0  0  0  0  0
    1.5241    0.1444   -0.2121 C   0  0  0  0  0  0  0  0  0  0  0  0
    2.3306    1.1065   -0.5315 N   0  0  0  0  0  0  0  0  0  0  0  0
    3.7071    0.7239   -0.2821 C   0  0  0  0  0  0  0  0  0  0  0  0
    3.6115   -0.7914   -0.2686 C   0  0  0  0  0  0  0  0  0  0  0  0
    2.2613   -0.9693    0.2781 N   0  0  0  0  0  0  0  0  0  0  0  0
   -0.6493   -0.9091   -0.9580 C   0  0  0  0  0  0  0  0  0  0  0  0
   -3.1630   -2.7125   -0.6312 H   0  0  0  0  0  0  0  0  0  0  0  0
   -1.8445   -1.6329    0.6296 H   0  0  0  0  0  0  0  0  0  0  0  0
   -3.0214    0.3093    0.9463 H   0  0  0  0  0  0  0  0  0  0  0  0
   -3.7472    0.1295   -0.6639 H   0  0  0  0  0  0  0  0  0  0  0  0
   -1.7347    1.2684   -1.6307 H   0  0  0  0  0  0  0  0  0  0  0  0
   -3.1181    2.5147    0.5543 H   0  0  0  0  0  0  0  0  0  0  0  0
   -0.0848    2.1966    0.2482 H   0  0  0  0  0  0  0  0  0  0  0  0
   -0.8964    0.9926    1.3015 H   0  0  0  0  0  0  0  0  0  0  0  0
    3.9997    1.0165    0.7616 H   0  0  0  0  0  0  0  0  0  0  0  0
    4.4131    1.1001   -1.0213 H   0  0  0  0  0  0  0  0  0  0  0  0
    3.5510   -1.1776   -1.3135 H   0  0  0  0  0  0  0  0  0  0  0  0
    4.3780   -1.2680    0.3383 H   0  0  0  0  0  0  0  0  0  0  0  0
    1.8979   -1.7245    0.8860 H   0  0  0  0  0  0  0  0  0  0  0  0
   -0.0713   -1.8534   -0.7847 H   0  0  0  0  0  0  0  0  0  0  0  0
   -0.7321   -0.7948   -2.0496 H   0  0  0  0  0  0  0  0  0  0  0  0
  1  2  1  0
  2  3  1  0
  3  4  1  0
  4  5  1  0
  4  6  1  0
  6  7  1  0
  7  8  1  0
  8  9  2  0
  9 10  1  0
 10 11  1  0
 11 12  1  0
  7 13  1  0
 13  2  1  0
 12  8  1  0
  1 14  1  0
  2 15  1  1
  3 16  1  0
  3 17  1  0
  4 18  1  6
  5 19  1  0
  6 20  1  0
  6 21  1  0
 10 22  1  0
 10 23  1  0
 11 24  1  0
 11 25  1  0
 12 26  1  0
 13 27  1  0
 13 28  1  0
M  END
$$$$

     RDKit          3D

 28 29  0  0  0  0  0  0  0  0999 V2000
   -2.7595    1.8349   -0.6717 O   0  0  0  0  0  0  0  0  0  0  0  0
   -2.0100    0.7300   -1.1346 C   0  0  2  0  0  0  0  0  0  0  0  0
   -2.6637   -0.4906   -0.5321 C   0  0  0  0  0  0  0  0  0  0  0  0
   -2.1467   -0.6074    0.8869 C   0  0  1  0  0  0  0  0  0  0  0  0
   -2.9155   -1.4475    1.6647 O   0  0  0  0  0  0  0  0  0  0  0  0
   -0.7162   -1.1399    0.7432 C   0  0  0  0  0  0  0  0  0  0  0  0
    0.0052   -0.1256   -0.0040 N   0  0  0  0  0  0  0  0  0  0  0  0
    1.4381   -0.1879    0.0144 C   0  0  0  0  0  0  0  0  0  0  0  0
    2.1832   -0.7862    0.8751 N   0  0  0  0  0  0  0  0  0  0  0  0
    3.5777   -0.6740    0.6323 C   0  0  0  0  0  0  0  0  0  0  0  0
    3.6648    0.4758   -0.3427 C   0  0  0  0  0  0  0  0  0  0  0  0
    2.3363    0.4134   -0.9330 N   0  0  0  0  0  0  0  0  0  0  0  0
   -0.6004    0.9250   -0.7527 C   0  0  0  0  0  0  0  0  0  0  0  0
   -2.4911    2.6633   -1.1264 H   0  0  0  0  0  0  0  0  0  0  0  0
   -2.1734    0.7157   -2.2460 H   0  0  0  0  0  0  0  0  0  0  0  0
   -2.3984   -1.3979   -1.1200 H   0  0  0  0  0  0  0  0  0  0  0  0
   -3.7749   -0.3709   -0.5388 H   0  0  0  0  0  0  0  0  0  0  0  0
   -2.0478    0.4177    1.3036 H   0  0  0  0  0  0  0  0  0  0  0  0
   -3.4414   -0.9219    2.3014 H   0  0  0  0  0  0  0  0  0  0  0  0
   -0.7259   -2.1134    0.2146 H   0  0  0  0  0  0  0  0  0  0  0  0
   -0.3273   -1.2561    1.7745 H   0  0  0  0  0  0  0  0  0  0  0  0
    4.1017   -0.4474    1.5857 H   0  0  0  0  0  0  0  0  0  0  0  0
    3.9338   -1.6179    0.1692 H   0  0  0  0  0  0  0  0  0  0  0  0
    3.8019    1.4436    0.1983 H   0  0  0  0  0  0  0  0  0  0  0  0
    4.4653    0.2666   -1.0661 H   0  0  0  0  0  0  0  0  0  0  0  0
    2.1018    0.7540   -1.8840 H   0  0  0  0  0  0  0  0  0  0  0  0
    0.0209    1.0661   -1.6839 H   0  0  0  0  0  0  0  0  0  0  0  0
   -0.4385    1.8787   -0.1778 H   0  0  0  0  0  0  0  0  0  0  0  0
  1  2  1  0
  2  3  1  0
  3  4  1  0
  4  5  1  0
  4  6  1  0
  6  7  1  0
  7  8  1  0
  8  9  2  0
  9 10  1  0
 10 11  1  0
 11 12  1  0
  7 13  1  0
 13  2  1  0
 12  8  1  0
  1 14  1  0
  2 15  1  6
  3 16  1  0
  3 17  1  0
  4 18  1  1
  5 19  1  0
  6 20  1  0
  6 21  1  0
 10 22  1  0
 10 23  1  0
 11 24  1  0
 11 25  1  0
 12 26  1  0
 13 27  1  0
 13 28  1  0
M  END
$$$$
