
     RDKit          3D

 29 29  0  0  0  0  0  0  0  0999 V2000
    2.8344    0.5466    1.6993 C   0  0  0  0  0  0  0  0  0  0  0  0
    1.8090   -0.1345    1.0049 O   0  0  0  0  0  0  0  0  0  0  0  0
    1.3236    0.2755   -0.2245 C   0  0  0  0  0  0  0  0  0  0  0  0
    1.8528    1.3088   -0.7044 O   0  0  0  0  0  0  0  0  0  0  0  0
    0.2734   -0.4250   -0.9348 C   0  0  2  0  0  0  0  0  0  0  0  0
    0.7109   -1.8643   -1.2414 C   0  0  0  0  0  0  0  0  0  0  0  0
    0.0093    0.1685   -2.2432 N   0  0  0  0  0  0  0  0  0  0  0  0
   -1.0670   -0.5118   -0.2584 C   0  0  1  0  0  0  0  0  0  0  0  0
   -1.9680   -1.3293   -0.9968 O   0  0  0  0  0  0  0  0  0  0  0  0
   -1.0800   -0.9665    1.1719 C   0  0  0  0  0  0  0  0  0  0  0  0
   -1.4075    0.4418    1.5840 C   0  0  0  0  0  0  0  0  0  0  0  0
   -1.7136    0.7472    0.1546 C   0  0  1  0  0  0  0  0  0  0  0  0
   -1.1631    1.9787   -0.3590 N   0  0  0  0  0  0  0  0  0  0  0  0
    2.4133    1.3234    2.3658 H   0  0  0  0  0  0  0  0  0  0  0  0
    3.3160   -0.2064    2.3696 H   0  0  0  0  0  0  0  0  0  0  0  0
    3.6191    0.9415    1.0442 H   0  0  0  0  0  0  0  0  0  0  0  0
    1.1066   -2.3709   -0.3576 H   0  0  0  0  0  0  0  0  0  0  0  0
    1.5708   -1.7470   -1.9589 H   0  0  0  0  0  0  0  0  0  0  0  0
   -0.1014   -2.4008   -1.7600 H   0  0  0  0  0  0  0  0  0  0  0  0
    0.0775    1.1976   -2.2347 H   0  0  0  0  0  0  0  0  0  0  0  0
    0.5530   -0.2982   -2.9949 H   0  0  0  0  0  0  0  0  0  0  0  0
   -2.3839   -0.8207   -1.7218 H   0  0  0  0  0  0  0  0  0  0  0  0
   -0.1116   -1.3370    1.5660 H   0  0  0  0  0  0  0  0  0  0  0  0
   -1.9216   -1.6740    1.4324 H   0  0  0  0  0  0  0  0  0  0  0  0
   -2.2726    0.5055    2.2846 H   0  0  0  0  0  0  0  0  0  0  0  0
   -0.4938    0.9494    1.9674 H   0  0  0  0  0  0  0  0  0  0  0  0
   -2.8354    0.7036    0.0199 H   0  0  0  0  0  0  0  0  0  0  0  0
   -1.1369    2.6698    0.4117 H   0  0  0  0  0  0  0  0  0  0  0  0
   -1.8134    2.3286   -1.0863 H   0  0  0  0  0  0  0  0  0  0  0  0
  1  2  1  0
  2  3  1  0
  3  4  2  0
  3  5  1  0
  5  6  1  0
  5  7  1  6
  5  8  1  0
  8  9  1  6
  8 10  1  0
 10 11  1  0
 11 12  1  0
 12 13  1  0
 12  8  1  0
  1 14  1  0
  1 15  1  0
  1 16  1  0
  6 17  1  0
  6 18  1  0
  6 19  1  0
  7 20  1  0
  7 21  1  0
  9 22  1  0
 10 23  1  0
 10 24  1  0
 11 25  1  0
 11 26  1  0
 12 27  1  1
 13 28  1  0
 13 29  1  0
M  END
$$$$

     RDKit          3D

 29 29  0  0  0  0  0  0  0  0999 V2000
    3.1134   -1.6502    0.7382 C   0  0  0  0  0  0  0  0  0  0  0  0
    1.9488   -0.9899    0.2347 O   0  0  0  0  0  0  0  0  0  0  0  0
    1.5058    0.2169    0.7593 C   0  0  0  0  0  0  0  0  0  0  0  0
    2.2245    0.6701    1.7150 O   0  0  0  0  0  0  0  0  0  0  0  0
    0.3025    0.9284    0.2609 C   0  0  2  0  0  0  0  0  0  0  0  0
    0.5588    1.3573   -1.1415 C   0  0  0  0  0  0  0  0  0  0  0  0
    0.1923    2.1558    1.0699 N   0  0  0  0  0  0  0  0  0  0  0  0
   -0.9606    0.1741    0.4787 C   0  0  1  0  0  0  0  0  0  0  0  0
   -1.1121   -0.1444    1.8298 O   0  0  0  0  0  0  0  0  0  0  0  0
   -2.2273    0.8386   -0.0004 C   0  0  0  0  0  0  0  0  0  0  0  0
   -2.1992   -0.0620   -1.1916 C   0  0  0  0  0  0  0  0  0  0  0  0
   -1.2904   -0.9815   -0.3881 C   0  0  1  0  0  0  0  0  0  0  0  0
   -0.2584   -1.6186   -1.1301 N   0  0  0  0  0  0  0  0  0  0  0  0
    3.1853   -1.5284    1.8275 H   0  0  0  0  0  0  0  0  0  0  0  0
    3.0622   -2.6936    0.3984 H   0  0  0  0  0  0  0  0  0  0  0  0
    4.0193   -1.1891    0.2747 H   0  0  0  0  0  0  0  0  0  0  0  0
    0.6722    0.5020   -1.8473 H   0  0  0  0  0  0  0  0  0  0  0  0
   -0.1572    2.1123   -1.5228 H   0  0  0  0  0  0  0  0  0  0  0  0
    1.5570    1.8690   -1.1511 H   0  0  0  0  0  0  0  0  0  0  0  0
   -0.3023    1.9353    1.9790 H   0  0  0  0  0  0  0  0  0  0  0  0
   -0.4526    2.7895    0.5474 H   0  0  0  0  0  0  0  0  0  0  0  0
   -0.5349   -0.9057    2.0875 H   0  0  0  0  0  0  0  0  0  0  0  0
   -3.1296    0.6011    0.6253 H   0  0  0  0  0  0  0  0  0  0  0  0
   -2.1833    1.9102   -0.1710 H   0  0  0  0  0  0  0  0  0  0  0  0
   -3.1531   -0.5484   -1.4796 H   0  0  0  0  0  0  0  0  0  0  0  0
   -1.7224    0.3585   -2.1011 H   0  0  0  0  0  0  0  0  0  0  0  0
   -1.9414   -1.7416    0.1245 H   0  0  0  0  0  0  0  0  0  0  0  0
   -0.0881   -2.5638   -0.7220 H   0  0  0  0  0  0  0  0  0  0  0  0
   -0.6291   -1.8020   -2.1046 H   0  0  0  0  0  0  0  0  0  0  0  0
  1  2  1  0
  2  3  1  0
  3  4  2  0
  3  5  1  0
  5  6  1  0
  5  7  1  1
  5  8  1  0
  8  9  1  1
  8 10  1  0
 10 11  1  0
 11 12  1  0
 12 13  1  0
 12  8  1  0
  1 14  1  0
  1 15  1  0
  1 16  1  0
  6 17  1  0
  6 18  1  0
  6 19  1  0
  7 20  1  0
  7 21  1  0
  9 22  1  0
 10 23  1  0
 10 24  1  0
 11 25  1  0
 11 26  1  0
 12 27  1  1
 13 28  1  0
 13 29  1  0
M  END
$$$$

     RDKit          3D

 29 29  0  0  0  0  0  0  0  0999 V2000
    3.0003    0.2783    1.8439 C   0  0  0  0  0  0  0  0  0  0  0  0
    1.8194   -0.0235    1.1281 O   0  0  0  0  0  0  0  0  0  0  0  0
    1.6373    0.3791   -0.1824 C   0  0  0  0  0  0  0  0  0  0  0  0
    2.5500    1.0266   -0.7354 O   0  0  0  0  0  0  0  0  0  0  0  0
    0.4090    0.0655   -0.9278 C   0  0  2  0  0  0  0  0  0  0  0  0
    0.2981   -1.4303   -1.0921 C   0  0  0  0  0  0  0  0  0  0  0  0
    0.5272    0.6223   -2.2624 N   0  0  0  0  0  0  0  0  0  0  0  0
   -0.8184    0.6751   -0.3096 C   0  0  1  0  0  0  0  0  0  0  0  0
   -0.6746    2.0643   -0.2548 O   0  0  0  0  0  0  0  0  0  0  0  0
   -2.0641    0.3202   -1.0594 C   0  0  0  0  0  0  0  0  0  0  0  0
   -2.5835   -0.3553    0.1775 C   0  0  0  0  0  0  0  0  0  0  0  0
   -1.3342    0.0655    0.9360 C   0  0  1  0  0  0  0  0  0  0  0  0
   -0.6273   -1.0483    1.4899 N   0  0  0  0  0  0  0  0  0  0  0  0
    3.6926   -0.5986    1.7846 H   0  0  0  0  0  0  0  0  0  0  0  0
    3.4852    1.1591    1.3819 H   0  0  0  0  0  0  0  0  0  0  0  0
    2.8026    0.4236    2.9347 H   0  0  0  0  0  0  0  0  0  0  0  0
    0.7894   -1.9191   -0.2126 H   0  0  0  0  0  0  0  0  0  0  0  0
   -0.7085   -1.7897   -1.2921 H   0  0  0  0  0  0  0  0  0  0  0  0
    0.9461   -1.7121   -1.9652 H   0  0  0  0  0  0  0  0  0  0  0  0
    0.2233    1.6161   -2.3074 H   0  0  0  0  0  0  0  0  0  0  0  0
    1.4541    0.4581   -2.6903 H   0  0  0  0  0  0  0  0  0  0  0  0
   -0.5234    2.3022    0.6890 H   0  0  0  0  0  0  0  0  0  0  0  0
   -2.7204    1.1947   -1.3216 H   0  0  0  0  0  0  0  0  0  0  0  0
   -1.9721   -0.3227   -1.9325 H   0  0  0  0  0  0  0  0  0  0  0  0
   -2.6457   -1.4653    0.0867 H   0  0  0  0  0  0  0  0  0  0  0  0
   -3.5318    0.0490    0.5751 H   0  0  0  0  0  0  0  0  0  0  0  0
   -1.6302    0.8538    1.6864 H   0  0  0  0  0  0  0  0  0  0  0  0
   -0.6473   -0.9469    2.5398 H   0  0  0  0  0  0  0  0  0  0  0  0
   -1.1530   -1.9417    1.2921 H   0  0  0  0  0  0  0  0  0  0  0  0
  1  2  1  0
  2  3  1  0
  3  4  2  0
  3  5  1  0
  5  6  1  0
  5  7  1  6
  5  8  1  0
  8  9  1  1
  8 10  1  0
 10 11  1  0
 11 12  1  0
 12 13  1  0
 12  8  1  0
  1 14  1  0
  1 15  1  0
  1 16  1  0
  6 17  1  0
  6 18  1  0
  6 19  1  0
  7 20  1  0
  7 21  1  0
  9 22  1  0
 10 23  1  0
 10 24  1  0
 11 25  1  0
 11 26  1  0
 12 27  1  1
 13 28  1  0
 13 29  1  0
M  END
$$$$

     RDKit          3D

 29 29  0  0  0  0  0  0  0  0999 V2000
    2.8221    0.9290    1.6355 C   0  0  0  0  0  0  0  0  0  0  0  0
    1.8049    0.0893    1.0807 O   0  0  0  0  0  0  0  0  0  0  0  0
    1.3244    0.2770   -0.2092 C   0  0  0  0  0  0  0  0  0  0  0  0
    1.8477    1.2335   -0.8465 O   0  0  0  0  0  0  0  0  0  0  0  0
    0.2907   -0.5487   -0.8239 C   0  0  2  0  0  0  0  0  0  0  0  0
    0.7669   -2.0034   -0.9474 C   0  0  0  0  0  0  0  0  0  0  0  0
    0.0685   -0.1181   -2.2011 N   0  0  0  0  0  0  0  0  0  0  0  0
   -1.0523   -0.5333   -0.1610 C   0  0  1  0  0  0  0  0  0  0  0  0
   -1.9709   -1.4117   -0.7887 O   0  0  0  0  0  0  0  0  0  0  0  0
   -1.0462   -0.7738    1.3234 C   0  0  0  0  0  0  0  0  0  0  0  0
   -1.3541    0.6870    1.5169 C   0  0  0  0  0  0  0  0  0  0  0  0
   -1.6991    0.7684    0.0774 C   0  0  1  0  0  0  0  0  0  0  0  0
   -1.2016    1.9068   -0.6533 N   0  0  0  0  0  0  0  0  0  0  0  0
    3.0888    0.5224    2.6169 H   0  0  0  0  0  0  0  0  0  0  0  0
    2.4943    1.9866    1.6743 H   0  0  0  0  0  0  0  0  0  0  0  0
    3.7212    0.8671    0.9890 H   0  0  0  0  0  0  0  0  0  0  0  0
    1.6436   -1.9653   -1.6374 H   0  0  0  0  0  0  0  0  0  0  0  0
    1.1408   -2.3898    0.0126 H   0  0  0  0  0  0  0  0  0  0  0  0
    0.0029   -2.6174   -1.4219 H   0  0  0  0  0  0  0  0  0  0  0  0
    1.0126   -0.2260   -2.6785 H   0  0  0  0  0  0  0  0  0  0  0  0
   -0.5894   -0.8244   -2.6401 H   0  0  0  0  0  0  0  0  0  0  0  0
   -2.3447   -0.8916   -1.5444 H   0  0  0  0  0  0  0  0  0  0  0  0
   -0.0833   -1.1181    1.7480 H   0  0  0  0  0  0  0  0  0  0  0  0
   -1.8918   -1.4224    1.6714 H   0  0  0  0  0  0  0  0  0  0  0  0
   -2.2362    0.8291    2.2111 H   0  0  0  0  0  0  0  0  0  0  0  0
   -0.5086    1.3431    1.8006 H   0  0  0  0  0  0  0  0  0  0  0  0
   -2.8175    0.7505   -0.0537 H   0  0  0  0  0  0  0  0  0  0  0  0
   -1.5556    2.7608   -0.1661 H   0  0  0  0  0  0  0  0  0  0  0  0
   -1.6781    1.8936   -1.5846 H   0  0  0  0  0  0  0  0  0  0  0  0
  1  2  1  0
  2  3  1  0
  3  4  2  0
  3  5  1  0
  5  6  1  0
  5  7  1  6
  5  8  1  0
  8  9  1  6
  8 10  1  0
 10 11  1  0
 11 12  1  0
 12 13  1  0
 12  8  1  0
  1 14  1  0
  1 15  1  0
  1 16  1  0
  6 17  1  0
  6 18  1  0
  6 19  1  0
  7 20  1  0
  7 21  1  0
  9 22  1  0
 10 23  1  0
 10 24  1  0
 11 25  1  0
 11 26  1  0
 12 27  1  1
 13 28  1  0
 13 29  1  0
M  END
$$$$

     RDKit          3D

 29 29  0  0  0  0  0  0  0  0999 V2000
    3.8139   -1.2977    0.6210 C   0  0  0  0  0  0  0  0  0  0  0  0
    2.7545   -0.3759    0.5580 O   0  0  0  0  0  0  0  0  0  0  0  0
    1.5830   -0.5776   -0.1348 C   0  0  0  0  0  0  0  0  0  0  0  0
    1.4168   -1.6412   -0.7612 O   0  0  0  0  0  0  0  0  0  0  0  0
    0.5367    0.4816   -0.1210 C   0  0  2  0  0  0  0  0  0  0  0  0
    0.4110    1.0535   -1.5129 C   0  0  0  0  0  0  0  0  0  0  0  0
    1.0382    1.5999    0.7019 N   0  0  0  0  0  0  0  0  0  0  0  0
   -0.7290    0.0433    0.5023 C   0  0  1  0  0  0  0  0  0  0  0  0
   -0.5923   -0.3996    1.8451 O   0  0  0  0  0  0  0  0  0  0  0  0
   -1.8107    1.1013    0.4514 C   0  0  0  0  0  0  0  0  0  0  0  0
   -2.7855   -0.0901    0.5196 C   0  0  0  0  0  0  0  0  0  0  0  0
   -1.6650   -0.8620   -0.2046 C   0  0  1  0  0  0  0  0  0  0  0  0
   -1.8481   -0.7463   -1.6090 N   0  0  0  0  0  0  0  0  0  0  0  0
    4.1576   -1.4804    1.6630 H   0  0  0  0  0  0  0  0  0  0  0  0
    4.6740   -0.8452    0.0794 H   0  0  0  0  0  0  0  0  0  0  0  0
    3.5976   -2.2543    0.1006 H   0  0  0  0  0  0  0  0  0  0  0  0
   -0.2626    1.9297   -1.4926 H   0  0  0  0  0  0  0  0  0  0  0  0
    0.1532    0.2968   -2.2759 H   0  0  0  0  0  0  0  0  0  0  0  0
    1.4362    1.4798   -1.7543 H   0  0  0  0  0  0  0  0  0  0  0  0
    0.2249    2.1871    0.9853 H   0  0  0  0  0  0  0  0  0  0  0  0
    1.4932    1.1606    1.5278 H   0  0  0  0  0  0  0  0  0  0  0  0
   -0.9772    0.2628    2.4698 H   0  0  0  0  0  0  0  0  0  0  0  0
   -1.9766    1.6147   -0.4929 H   0  0  0  0  0  0  0  0  0  0  0  0
   -1.8120    1.7104    1.3693 H   0  0  0  0  0  0  0  0  0  0  0  0
   -2.8700   -0.3948    1.5727 H   0  0  0  0  0  0  0  0  0  0  0  0
   -3.6978    0.0349   -0.0592 H   0  0  0  0  0  0  0  0  0  0  0  0
   -1.6839   -1.9275    0.1525 H   0  0  0  0  0  0  0  0  0  0  0  0
   -1.7920   -1.6956   -2.0554 H   0  0  0  0  0  0  0  0  0  0  0  0
   -2.7879   -0.3684   -1.8804 H   0  0  0  0  0  0  0  0  0  0  0  0
  1  2  1  0
  2  3  1  0
  3  4  2  0
  3  5  1  0
  5  6  1  0
  5  7  1  1
  5  8  1  0
  8  9  1  1
  8 10  1  0
 10 11  1  0
 11 12  1  0
 12 13  1  0
 12  8  1  0
  1 14  1  0
  1 15  1  0
  1 16  1  0
  6 17  1  0
  6 18  1  0
  6 19  1  0
  7 20  1  0
  7 21  1  0
  9 22  1  0
 10 23  1  0
 10 24  1  0
 11 25  1  0
 11 26  1  0
 12 27  1  1
 13 28  1  0
 13 29  1  0
M  END
$$$$

     RDKit          3D

 29 29  0  0  0  0  0  0  0  0999 V2000
    2.9685    1.9904    0.4676 C   0  0  0  0  0  0  0  0  0  0  0  0
    1.7676    1.2514    0.5839 O   0  0  0  0  0  0  0  0  0  0  0  0
    1.6741    0.0001   -0.0080 C   0  0  0  0  0  0  0  0  0  0  0  0
    2.6850   -0.4134   -0.6274 O   0  0  0  0  0  0  0  0  0  0  0  0
    0.4806   -0.8489    0.0499 C   0  0  2  0  0  0  0  0  0  0  0  0
    0.2541   -1.2145    1.5023 C   0  0  0  0  0  0  0  0  0  0  0  0
    0.7620   -2.0690   -0.6787 N   0  0  0  0  0  0  0  0  0  0  0  0
   -0.7312   -0.2247   -0.5796 C   0  0  1  0  0  0  0  0  0  0  0  0
   -0.4782    0.0583   -1.9192 O   0  0  0  0  0  0  0  0  0  0  0  0
   -1.9270   -1.1396   -0.4717 C   0  0  0  0  0  0  0  0  0  0  0  0
   -2.6368   -0.1046    0.3608 C   0  0  0  0  0  0  0  0  0  0  0  0
   -1.4565    0.8070    0.1919 C   0  0  1  0  0  0  0  0  0  0  0  0
   -0.8595    1.2960    1.3971 N   0  0  0  0  0  0  0  0  0  0  0  0
    3.3979    1.8258   -0.5523 H   0  0  0  0  0  0  0  0  0  0  0  0
    2.8212    3.0606    0.6978 H   0  0  0  0  0  0  0  0  0  0  0  0
    3.7479    1.6043    1.1721 H   0  0  0  0  0  0  0  0  0  0  0  0
    0.9460   -2.0834    1.7047 H   0  0  0  0  0  0  0  0  0  0  0  0
    0.6189   -0.4033    2.1662 H   0  0  0  0  0  0  0  0  0  0  0  0
   -0.7519   -1.5654    1.7188 H   0  0  0  0  0  0  0  0  0  0  0  0
   -0.1017   -2.4887   -1.1110 H   0  0  0  0  0  0  0  0  0  0  0  0
    1.4572   -1.8359   -1.4303 H   0  0  0  0  0  0  0  0  0  0  0  0
   -0.0289    0.9149   -2.0373 H   0  0  0  0  0  0  0  0  0  0  0  0
   -2.4555   -1.3343   -1.4391 H   0  0  0  0  0  0  0  0  0  0  0  0
   -1.7522   -2.1090    0.0254 H   0  0  0  0  0  0  0  0  0  0  0  0
   -3.5888    0.2427   -0.1017 H   0  0  0  0  0  0  0  0  0  0  0  0
   -2.8528   -0.4138    1.4135 H   0  0  0  0  0  0  0  0  0  0  0  0
   -1.7530    1.6717   -0.4703 H   0  0  0  0  0  0  0  0  0  0  0  0
   -0.6521    2.3203    1.3405 H   0  0  0  0  0  0  0  0  0  0  0  0
   -1.5553    1.2049    2.1968 H   0  0  0  0  0  0  0  0  0  0  0  0
  1  2  1  0
  2  3  1  0
  3  4  2  0
  3  5  1  0
  5  6  1  0
  5  7  1  6
  5  8  1  0
  8  9  1  6
  8 10  1  0
 10 11  1  0
 11 12  1  0
 12 13  1  0
 12  8  1  0
  1 14  1  0
  1 15  1  0
  1 16  1  0
  6 17  1  0
  6 18  1  0
  6 19  1  0
  7 20  1  0
  7 21  1  0
  9 22  1  0
 10 23  1  0
 10 24  1  0
 11 25  1  0
 11 26  1  0
 12 27  1  6
 13 28  1  0
 13 29  1  0
M  END
$$$$

     RDKit          3D

 29 29  0  0  0  0  0  0  0  0999 V2000
    3.2679    1.2680    0.3008 C   0  0  0  0  0  0  0  0  0  0  0  0
    2.0043    0.6472    0.3448 O   0  0  0  0  0  0  0  0  0  0  0  0
    1.6474   -0.4243   -0.4492 C   0  0  0  0  0  0  0  0  0  0  0  0
    2.4936   -0.8678   -1.2518 O   0  0  0  0  0  0  0  0  0  0  0  0
    0.2736   -0.9505   -0.2676 C   0  0  2  0  0  0  0  0  0  0  0  0
    0.2025   -1.5029    1.0997 C   0  0  0  0  0  0  0  0  0  0  0  0
    0.1263   -2.0735   -1.2089 N   0  0  0  0  0  0  0  0  0  0  0  0
   -0.6947    0.0894   -0.6494 C   0  0  1  0  0  0  0  0  0  0  0  0
   -0.4614    0.5399   -1.9530 O   0  0  0  0  0  0  0  0  0  0  0  0
   -2.1594   -0.2949   -0.5548 C   0  0  0  0  0  0  0  0  0  0  0  0
   -2.4196    1.1979   -0.3053 C   0  0  0  0  0  0  0  0  0  0  0  0
   -0.9770    1.2407    0.2283 C   0  0  1  0  0  0  0  0  0  0  0  0
   -1.0177    1.0450    1.6457 N   0  0  0  0  0  0  0  0  0  0  0  0
    3.9510    0.7016    0.9916 H   0  0  0  0  0  0  0  0  0  0  0  0
    3.6614    1.3549   -0.7135 H   0  0  0  0  0  0  0  0  0  0  0  0
    3.1303    2.2902    0.7451 H   0  0  0  0  0  0  0  0  0  0  0  0
    0.8379   -0.8670    1.7810 H   0  0  0  0  0  0  0  0  0  0  0  0
    0.7396   -2.4958    1.0896 H   0  0  0  0  0  0  0  0  0  0  0  0
   -0.7883   -1.7041    1.4994 H   0  0  0  0  0  0  0  0  0  0  0  0
   -0.8205   -2.4888   -1.0318 H   0  0  0  0  0  0  0  0  0  0  0  0
    0.8848   -2.7560   -0.9735 H   0  0  0  0  0  0  0  0  0  0  0  0
    0.1568   -0.0608   -2.4449 H   0  0  0  0  0  0  0  0  0  0  0  0
   -2.6089   -0.6612   -1.5019 H   0  0  0  0  0  0  0  0  0  0  0  0
   -2.4205   -0.9027    0.3345 H   0  0  0  0  0  0  0  0  0  0  0  0
   -2.5571    1.7688   -1.2358 H   0  0  0  0  0  0  0  0  0  0  0  0
   -3.1907    1.3140    0.4534 H   0  0  0  0  0  0  0  0  0  0  0  0
   -0.4370    2.1689   -0.0403 H   0  0  0  0  0  0  0  0  0  0  0  0
   -0.9831    1.9652    2.1248 H   0  0  0  0  0  0  0  0  0  0  0  0
   -1.8416    0.4585    1.9430 H   0  0  0  0  0  0  0  0  0  0  0  0
  1  2  1  0
  2  3  1  0
  3  4  2  0
  3  5  1  0
  5  6  1  0
  5  7  1  6
  5  8  1  0
  8  9  1  6
  8 10  1  0
 10 11  1  0
 11 12  1  0
 12 13  1  0
 12  8  1  0
  1 14  1  0
  1 15  1  0
  1 16  1  0
  6 17  1  0
  6 18  1  0
  6 19  1  0
  7 20  1  0
  7 21  1  0
  9 22  1  0
 10 23  1  0
 10 24  1  0
 11 25  1  0
 11 26  1  0
 12 27  1  1
 13 28  1  0
 13 29  1  0
M  END
$$$$

     RDKit          3D

 29 29  0  0  0  0  0  0  0  0999 V2000
    3.6011    1.2831   -0.1967 C   0  0  0  0  0  0  0  0  0  0  0  0
    2.4095    0.6254    0.1842 O   0  0  0  0  0  0  0  0  0  0  0  0
    1.5764    0.0479   -0.7650 C   0  0  0  0  0  0  0  0  0  0  0  0
    1.9338    0.1398   -1.9672 O   0  0  0  0  0  0  0  0  0  0  0  0
    0.3024   -0.6567   -0.3740 C   0  0  2  0  0  0  0  0  0  0  0  0
    0.7269   -1.8515    0.4556 C   0  0  0  0  0  0  0  0  0  0  0  0
   -0.3338   -1.1396   -1.5320 N   0  0  0  0  0  0  0  0  0  0  0  0
   -0.4701    0.2810    0.4794 C   0  0  1  0  0  0  0  0  0  0  0  0
    0.3097    0.6651    1.5931 O   0  0  0  0  0  0  0  0  0  0  0  0
   -0.9936    1.5212   -0.1895 C   0  0  0  0  0  0  0  0  0  0  0  0
   -2.3979    1.0038   -0.0265 C   0  0  0  0  0  0  0  0  0  0  0  0
   -1.8474   -0.0724    0.8773 C   0  0  1  0  0  0  0  0  0  0  0  0
   -2.3060   -1.3990    0.6287 N   0  0  0  0  0  0  0  0  0  0  0  0
    3.5707    2.3211    0.2132 H   0  0  0  0  0  0  0  0  0  0  0  0
    4.4409    0.7068    0.2730 H   0  0  0  0  0  0  0  0  0  0  0  0
    3.7145    1.3173   -1.2931 H   0  0  0  0  0  0  0  0  0  0  0  0
    0.5327   -2.8151   -0.0667 H   0  0  0  0  0  0  0  0  0  0  0  0
    0.1630   -1.8590    1.3975 H   0  0  0  0  0  0  0  0  0  0  0  0
    1.8275   -1.8590    0.6672 H   0  0  0  0  0  0  0  0  0  0  0  0
   -0.3738   -2.1485   -1.6756 H   0  0  0  0  0  0  0  0  0  0  0  0
   -1.0324   -0.5601   -1.9827 H   0  0  0  0  0  0  0  0  0  0  0  0
   -0.2481    1.0536    2.2982 H   0  0  0  0  0  0  0  0  0  0  0  0
   -0.8748    2.4682    0.3989 H   0  0  0  0  0  0  0  0  0  0  0  0
   -0.6608    1.6889   -1.2296 H   0  0  0  0  0  0  0  0  0  0  0  0
   -2.8453    0.6448   -0.9732 H   0  0  0  0  0  0  0  0  0  0  0  0
   -3.1101    1.7047    0.4556 H   0  0  0  0  0  0  0  0  0  0  0  0
   -2.0870    0.2147    1.9446 H   0  0  0  0  0  0  0  0  0  0  0  0
   -2.2307   -1.9470    1.5138 H   0  0  0  0  0  0  0  0  0  0  0  0
   -3.2974   -1.3794    0.3433 H   0  0  0  0  0  0  0  0  0  0  0  0
  1  2  1  0
  2  3  1  0
  3  4  2  0
  3  5  1  0
  5  6  1  0
  5  7  1  6
  5  8  1  0
  8  9  1  1
  8 10  1  0
 10 11  1  0
 11 12  1  0
 12 13  1  0
 12  8  1  0
  1 14  1  0
  1 15  1  0
  1 16  1  0
  6 17  1  0
  6 18  1  0
  6 19  1  0
  7 20  1  0
  7 21  1  0
  9 22  1  0
 10 23  1  0
 10 24  1  0
 11 25  1  0
 11 26  1  0
 12 27  1  1
 13 28  1  0
 13 29  1  0
M  END
$$$$
