
     RDKit          3D

 26 25  0  0  0  0  0  0  0  0999 V2000
    2.9927   -1.0805    0.1354 C   0  0  0  0  0  0  0  0  0  0  0  0
    2.9087    0.2832   -0.5269 C   0  0  2  0  0  0  0  0  0  0  0  0
    3.8227    1.1328    0.2098 O   0  0  0  0  0  0  0  0  0  0  0  0
    1.5942    0.9098   -0.2547 C   0  0  0  0  0  0  0  0  0  0  0  0
    0.4073    0.0343   -0.6849 C   0  0  0  0  0  0  0  0  0  0  0  0
    0.5389   -1.0428   -1.2586 O   0  0  0  0  0  0  0  0  0  0  0  0
   -0.8434    0.5663   -0.3462 N   0  0  0  0  0  0  0  0  0  0  0  0
   -2.0164   -0.2216   -0.4975 C   0  0  1  0  0  0  0  0  0  0  0  0
   -2.3515   -0.6173    0.9888 C   0  0  0  0  0  0  0  0  0  0  0  0
   -1.2047   -1.2809    1.4387 O   0  0  0  0  0  0  0  0  0  0  0  0
   -3.1964    0.3710   -1.0865 C   0  0  0  0  0  0  0  0  0  0  0  0
   -3.6830   -0.1015   -2.1835 O   0  0  0  0  0  0  0  0  0  0  0  0
   -3.8594    1.4739   -0.5163 O   0  0  0  0  0  0  0  0  0  0  0  0
    2.2617   -1.1783    0.9340 H   0  0  0  0  0  0  0  0  0  0  0  0
    2.7797   -1.8469   -0.6570 H   0  0  0  0  0  0  0  0  0  0  0  0
    3.9915   -1.2737    0.5358 H   0  0  0  0  0  0  0  0  0  0  0  0
    3.1472    0.2349   -1.5556 H   0  0  0  0  0  0  0  0  0  0  0  0
    3.4158    1.1908    1.1359 H   0  0  0  0  0  0  0  0  0  0  0  0
    1.4750    1.0123    0.8715 H   0  0  0  0  0  0  0  0  0  0  0  0
    1.5186    1.8901   -0.7362 H   0  0  0  0  0  0  0  0  0  0  0  0
   -0.9486    1.5361    0.0567 H   0  0  0  0  0  0  0  0  0  0  0  0
   -1.7394   -1.1838   -1.0046 H   0  0  0  0  0  0  0  0  0  0  0  0
   -2.4720    0.3256    1.5337 H   0  0  0  0  0  0  0  0  0  0  0  0
   -3.2091   -1.2792    1.0420 H   0  0  0  0  0  0  0  0  0  0  0  0
   -0.9164   -1.9555    0.8142 H   0  0  0  0  0  0  0  0  0  0  0  0
   -4.4137    2.1008   -1.0267 H   0  0  0  0  0  0  0  0  0  0  0  0
  1  2  1  0
  2  3  1  0
  2  4  1  0
  4  5  1  0
  5  6  2  0
  5  7  1  0
  7  8  1  0
  8  9  1  0
  9 10  1  0
  8 11  1  0
 11 12  2  0
 11 13  1  0
  1 14  1  0
  1 15  1  0
  1 16  1  0
  2 17  1  6
  3 18  1  0
  4 19  1  0
  4 20  1  0
  7 21  1  0
  8 22  1  6
  9 23  1  0
  9 24  1  0
 10 25  1  0
 13 26  1  0
M  END
$$$$

     RDKit          3D

 26 25  0  0  0  0  0  0  0  0999 V2000
    3.1074    0.0410   -0.9624 C   0  0  0  0  0  0  0  0  0  0  0  0
    2.7837    0.6307    0.3887 C   0  0  2  0  0  0  0  0  0  0  0  0
    3.9505    0.5194    1.1503 O   0  0  0  0  0  0  0  0  0  0  0  0
    1.6059   -0.0378    1.0107 C   0  0  0  0  0  0  0  0  0  0  0  0
    0.4311    0.2113    0.0889 C   0  0  0  0  0  0  0  0  0  0  0  0
    0.4545    1.0904   -0.7520 O   0  0  0  0  0  0  0  0  0  0  0  0
   -0.7011   -0.6450    0.2567 N   0  0  0  0  0  0  0  0  0  0  0  0
   -1.8347   -0.5164   -0.6040 C   0  0  1  0  0  0  0  0  0  0  0  0
   -3.0685   -1.2282   -0.2852 C   0  0  0  0  0  0  0  0  0  0  0  0
   -3.6731   -0.8229    0.9068 O   0  0  0  0  0  0  0  0  0  0  0  0
   -2.1995    0.9553   -0.8383 C   0  0  0  0  0  0  0  0  0  0  0  0
   -1.6452    1.6061   -1.7162 O   0  0  0  0  0  0  0  0  0  0  0  0
   -3.2085    1.4621    0.0516 O   0  0  0  0  0  0  0  0  0  0  0  0
    3.9087    0.5986   -1.4192 H   0  0  0  0  0  0  0  0  0  0  0  0
    2.1971    0.1345   -1.6333 H   0  0  0  0  0  0  0  0  0  0  0  0
    3.3507   -1.0428   -0.8494 H   0  0  0  0  0  0  0  0  0  0  0  0
    2.6072    1.7082    0.2060 H   0  0  0  0  0  0  0  0  0  0  0  0
    3.7797   -0.0887    1.9036 H   0  0  0  0  0  0  0  0  0  0  0  0
    1.3191    0.5171    1.9239 H   0  0  0  0  0  0  0  0  0  0  0  0
    1.7186   -1.0799    1.3011 H   0  0  0  0  0  0  0  0  0  0  0  0
   -0.6747   -1.3922    0.9945 H   0  0  0  0  0  0  0  0  0  0  0  0
   -1.4727   -0.8170   -1.6622 H   0  0  0  0  0  0  0  0  0  0  0  0
   -3.7737   -1.1650   -1.1469 H   0  0  0  0  0  0  0  0  0  0  0  0
   -2.8515   -2.3429   -0.1661 H   0  0  0  0  0  0  0  0  0  0  0  0
   -3.0634   -0.7886    1.6517 H   0  0  0  0  0  0  0  0  0  0  0  0
   -3.0475    2.4927    0.2004 H   0  0  0  0  0  0  0  0  0  0  0  0
  1  2  1  0
  2  3  1  0
  2  4  1  0
  4  5  1  0
  5  6  2  0
  5  7  1  0
  7  8  1  0
  8  9  1  0
  9 10  1  0
  8 11  1  0
 11 12  2  0
 11 13  1  0
  1 14  1  0
  1 15  1  0
  1 16  1  0
  2 17  1  6
  3 18  1  0
  4 19  1  0
  4 20  1  0
  7 21  1  0
  8 22  1  6
  9 23  1  0
  9 24  1  0
 10 25  1  0
 13 26  1  0
M  END
$$$$

     RDKit          3D

 26 25  0  0  0  0  0  0  0  0999 V2000
    2.9596    1.3574    0.9426 C   0  0  0  0  0  0  0  0  0  0  0  0
    2.8480   -0.1288    1.1763 C   0  0  2  0  0  0  0  0  0  0  0  0
    4.0826   -0.6865    0.8458 O   0  0  0  0  0  0  0  0  0  0  0  0
    1.8024   -0.7267    0.2498 C   0  0  0  0  0  0  0  0  0  0  0  0
    0.4703   -0.1166    0.4839 C   0  0  0  0  0  0  0  0  0  0  0  0
    0.3804    0.7696    1.3710 O   0  0  0  0  0  0  0  0  0  0  0  0
   -0.6596   -0.5171   -0.2639 N   0  0  0  0  0  0  0  0  0  0  0  0
   -1.9568    0.0545   -0.0591 C   0  0  1  0  0  0  0  0  0  0  0  0
   -2.4588    0.7957   -1.2903 C   0  0  0  0  0  0  0  0  0  0  0  0
   -2.5650   -0.0165   -2.3950 O   0  0  0  0  0  0  0  0  0  0  0  0
   -2.9276   -0.9673    0.3863 C   0  0  0  0  0  0  0  0  0  0  0  0
   -2.5478   -2.1490    0.5307 O   0  0  0  0  0  0  0  0  0  0  0  0
   -4.2332   -0.6356    0.6416 O   0  0  0  0  0  0  0  0  0  0  0  0
    3.9611    1.6652    0.5823 H   0  0  0  0  0  0  0  0  0  0  0  0
    2.2096    1.6693    0.2136 H   0  0  0  0  0  0  0  0  0  0  0  0
    2.7871    1.9066    1.8953 H   0  0  0  0  0  0  0  0  0  0  0  0
    2.6006   -0.3219    2.2320 H   0  0  0  0  0  0  0  0  0  0  0  0
    4.4284   -1.1545    1.6355 H   0  0  0  0  0  0  0  0  0  0  0  0
    1.7415   -1.8210    0.3736 H   0  0  0  0  0  0  0  0  0  0  0  0
    2.0896   -0.5327   -0.8004 H   0  0  0  0  0  0  0  0  0  0  0  0
   -0.5303   -1.2612   -0.9928 H   0  0  0  0  0  0  0  0  0  0  0  0
   -1.8956    0.8232    0.7518 H   0  0  0  0  0  0  0  0  0  0  0  0
   -1.7442    1.6235   -1.4704 H   0  0  0  0  0  0  0  0  0  0  0  0
   -3.4810    1.1685   -1.0353 H   0  0  0  0  0  0  0  0  0  0  0  0
   -2.3671    0.5302   -3.2027 H   0  0  0  0  0  0  0  0  0  0  0  0
   -4.9944   -1.3285    0.5693 H   0  0  0  0  0  0  0  0  0  0  0  0
  1  2  1  0
  2  3  1  0
  2  4  1  0
  4  5  1  0
  5  6  2  0
  5  7  1  0
  7  8  1  0
  8  9  1  0
  9 10  1  0
  8 11  1  0
 11 12  2  0
 11 13  1  0
  1 14  1  0
  1 15  1  0
  1 16  1  0
  2 17  1  1
  3 18  1  0
  4 19  1  0
  4 20  1  0
  7 21  1  0
  8 22  1  1
  9 23  1  0
  9 24  1  0
 10 25  1  0
 13 26  1  0
M  END
$$$$

     RDKit          3D

 26 25  0  0  0  0  0  0  0  0999 V2000
   -3.2196    0.1811   -0.7610 C   0  0  0  0  0  0  0  0  0  0  0  0
   -2.9398   -0.7302    0.4076 C   0  0  2  0  0  0  0  0  0  0  0  0
   -3.9908   -0.6435    1.3167 O   0  0  0  0  0  0  0  0  0  0  0  0
   -1.6906   -0.2785    1.0895 C   0  0  0  0  0  0  0  0  0  0  0  0
   -0.5346   -0.3217    0.1474 C   0  0  0  0  0  0  0  0  0  0  0  0
   -0.6511   -0.6956   -1.0470 O   0  0  0  0  0  0  0  0  0  0  0  0
    0.7652    0.0605    0.5569 N   0  0  0  0  0  0  0  0  0  0  0  0
    1.8803    0.0148   -0.3654 C   0  0  1  0  0  0  0  0  0  0  0  0
    2.3511    1.4637   -0.5299 C   0  0  0  0  0  0  0  0  0  0  0  0
    3.4276    1.5561   -1.3997 O   0  0  0  0  0  0  0  0  0  0  0  0
    2.9410   -0.8398    0.1668 C   0  0  0  0  0  0  0  0  0  0  0  0
    2.8093   -1.4047    1.2666 O   0  0  0  0  0  0  0  0  0  0  0  0
    4.1151   -1.0401   -0.5401 O   0  0  0  0  0  0  0  0  0  0  0  0
   -2.7565    1.1828   -0.5429 H   0  0  0  0  0  0  0  0  0  0  0  0
   -4.3260    0.3000   -0.8539 H   0  0  0  0  0  0  0  0  0  0  0  0
   -2.8401   -0.2047   -1.7078 H   0  0  0  0  0  0  0  0  0  0  0  0
   -2.8481   -1.7861    0.0785 H   0  0  0  0  0  0  0  0  0  0  0  0
   -3.6449   -0.6182    2.2427 H   0  0  0  0  0  0  0  0  0  0  0  0
   -1.4380   -0.8805    1.9797 H   0  0  0  0  0  0  0  0  0  0  0  0
   -1.8737    0.7590    1.4630 H   0  0  0  0  0  0  0  0  0  0  0  0
    0.9564    0.3832    1.5253 H   0  0  0  0  0  0  0  0  0  0  0  0
    1.6016   -0.3348   -1.3648 H   0  0  0  0  0  0  0  0  0  0  0  0
    2.6724    1.8722    0.4671 H   0  0  0  0  0  0  0  0  0  0  0  0
    1.5162    2.1167   -0.8539 H   0  0  0  0  0  0  0  0  0  0  0  0
    3.1239    1.8378   -2.2913 H   0  0  0  0  0  0  0  0  0  0  0  0
    4.5937   -1.9494   -0.4502 H   0  0  0  0  0  0  0  0  0  0  0  0
  1  2  1  0
  2  3  1  0
  2  4  1  0
  4  5  1  0
  5  6  2  0
  5  7  1  0
  7  8  1  0
  8  9  1  0
  9 10  1  0
  8 11  1  0
 11 12  2  0
 11 13  1  0
  1 14  1  0
  1 15  1  0
  1 16  1  0
  2 17  1  6
  3 18  1  0
  4 19  1  0
  4 20  1  0
  7 21  1  0
  8 22  1  6
  9 23  1  0
  9 24  1  0
 10 25  1  0
 13 26  1  0
M  END
$$$$

     RDKit          3D

 26 25  0  0  0  0  0  0  0  0999 V2000
   -4.1355   -0.5781   -0.3368 C   0  0  0  0  0  0  0  0  0  0  0  0
   -2.7095   -1.0586   -0.3541 C   0  0  2  0  0  0  0  0  0  0  0  0
   -2.5727   -2.1157    0.5213 O   0  0  0  0  0  0  0  0  0  0  0  0
   -1.8167    0.0871    0.0714 C   0  0  0  0  0  0  0  0  0  0  0  0
   -0.3814   -0.3359    0.0723 C   0  0  0  0  0  0  0  0  0  0  0  0
   -0.0259   -1.4885   -0.2436 O   0  0  0  0  0  0  0  0  0  0  0  0
    0.6090    0.5936    0.4414 N   0  0  0  0  0  0  0  0  0  0  0  0
    2.0145    0.3380    0.4901 C   0  0  1  0  0  0  0  0  0  0  0  0
    2.8351    1.1686   -0.4360 C   0  0  0  0  0  0  0  0  0  0  0  0
    4.1761    0.7920   -0.2602 O   0  0  0  0  0  0  0  0  0  0  0  0
    2.4612    0.4042    1.9019 C   0  0  0  0  0  0  0  0  0  0  0  0
    1.6918    0.6488    2.8673 O   0  0  0  0  0  0  0  0  0  0  0  0
    3.7981    0.1842    2.1665 O   0  0  0  0  0  0  0  0  0  0  0  0
   -4.7822   -1.4425   -0.5955 H   0  0  0  0  0  0  0  0  0  0  0  0
   -4.2931    0.2417   -1.0596 H   0  0  0  0  0  0  0  0  0  0  0  0
   -4.3699   -0.2403    0.6934 H   0  0  0  0  0  0  0  0  0  0  0  0
   -2.4034   -1.3885   -1.3651 H   0  0  0  0  0  0  0  0  0  0  0  0
   -2.8270   -2.9498    0.0533 H   0  0  0  0  0  0  0  0  0  0  0  0
   -1.9615    0.9560   -0.5997 H   0  0  0  0  0  0  0  0  0  0  0  0
   -2.0902    0.4186    1.0941 H   0  0  0  0  0  0  0  0  0  0  0  0
    0.2999    1.5673    0.7074 H   0  0  0  0  0  0  0  0  0  0  0  0
    2.1575   -0.7382    0.1781 H   0  0  0  0  0  0  0  0  0  0  0  0
    2.7872    2.2408   -0.2581 H   0  0  0  0  0  0  0  0  0  0  0  0
    2.5775    0.8729   -1.4770 H   0  0  0  0  0  0  0  0  0  0  0  0
    4.6926    1.2454   -0.9532 H   0  0  0  0  0  0  0  0  0  0  0  0
    4.2686    0.5770    2.9623 H   0  0  0  0  0  0  0  0  0  0  0  0
  1  2  1  0
  2  3  1  0
  2  4  1  0
  4  5  1  0
  5  6  2  0
  5  7  1  0
  7  8  1  0
  8  9  1  0
  9 10  1  0
  8 11  1  0
 11 12  2  0
 11 13  1  0
  1 14  1  0
  1 15  1  0
  1 16  1  0
  2 17  1  6
  3 18  1  0
  4 19  1  0
  4 20  1  0
  7 21  1  0
  8 22  1  6
  9 23  1  0
  9 24  1  0
 10 25  1  0
 13 26  1  0
M  END
$$$$

     RDKit          3D

 26 25  0  0  0  0  0  0  0  0999 V2000
   -4.1578   -0.0384    0.3336 C   0  0  0  0  0  0  0  0  0  0  0  0
   -2.7950   -0.6969    0.2991 C   0  0  2  0  0  0  0  0  0  0  0  0
   -2.4928   -1.3335    1.4968 O   0  0  0  0  0  0  0  0  0  0  0  0
   -1.7770    0.3711    0.0268 C   0  0  0  0  0  0  0  0  0  0  0  0
   -0.4120   -0.2190   -0.0188 C   0  0  0  0  0  0  0  0  0  0  0  0
   -0.2750   -1.4714    0.1652 O   0  0  0  0  0  0  0  0  0  0  0  0
    0.7340    0.5837   -0.2621 N   0  0  0  0  0  0  0  0  0  0  0  0
    2.0463   -0.0375   -0.2974 C   0  0  1  0  0  0  0  0  0  0  0  0
    2.7186    0.2252   -1.6411 C   0  0  0  0  0  0  0  0  0  0  0  0
    3.9721   -0.3980   -1.6064 O   0  0  0  0  0  0  0  0  0  0  0  0
    2.8672    0.5286    0.8049 C   0  0  0  0  0  0  0  0  0  0  0  0
    2.3992    1.4052    1.5890 O   0  0  0  0  0  0  0  0  0  0  0  0
    4.1768    0.1349    1.0359 O   0  0  0  0  0  0  0  0  0  0  0  0
   -4.2120    0.8212   -0.3682 H   0  0  0  0  0  0  0  0  0  0  0  0
   -4.3863    0.3620    1.3410 H   0  0  0  0  0  0  0  0  0  0  0  0
   -4.9477   -0.7621    0.0340 H   0  0  0  0  0  0  0  0  0  0  0  0
   -2.7177   -1.4517   -0.4987 H   0  0  0  0  0  0  0  0  0  0  0  0
   -3.1961   -1.1644    2.1844 H   0  0  0  0  0  0  0  0  0  0  0  0
   -2.0342    0.8533   -0.9362 H   0  0  0  0  0  0  0  0  0  0  0  0
   -1.7770    1.1340    0.8345 H   0  0  0  0  0  0  0  0  0  0  0  0
    0.5811    1.5966   -0.4066 H   0  0  0  0  0  0  0  0  0  0  0  0
    1.9584   -1.1254   -0.1168 H   0  0  0  0  0  0  0  0  0  0  0  0
    2.1186   -0.2953   -2.4228 H   0  0  0  0  0  0  0  0  0  0  0  0
    2.7974    1.3033   -1.8089 H   0  0  0  0  0  0  0  0  0  0  0  0
    3.9711   -1.1580   -0.9442 H   0  0  0  0  0  0  0  0  0  0  0  0
    4.8399    0.8326    1.3562 H   0  0  0  0  0  0  0  0  0  0  0  0
  1  2  1  0
  2  3  1  0
  2  4  1  0
  4  5  1  0
  5  6  2  0
  5  7  1  0
  7  8  1  0
  8  9  1  0
  9 10  1  0
  8 11  1  0
 11 12  2  0
 11 13  1  0
  1 14  1  0
  1 15  1  0
  1 16  1  0
  2 17  1  6
  3 18  1  0
  4 19  1  0
  4 20  1  0
  7 21  1  0
  8 22  1  1
  9 23  1  0
  9 24  1  0
 10 25  1  0
 13 26  1  0
M  END
$$$$

     RDKit          3D

 26 25  0  0  0  0  0  0  0  0999 V2000
    4.1030    0.7733    0.0917 C   0  0  0  0  0  0  0  0  0  0  0  0
    2.9060   -0.0104   -0.3994 C   0  0  2  0  0  0  0  0  0  0  0  0
    2.7598    0.2459   -1.7631 O   0  0  0  0  0  0  0  0  0  0  0  0
    1.6399    0.4826    0.3104 C   0  0  0  0  0  0  0  0  0  0  0  0
    0.4754   -0.2829   -0.1701 C   0  0  0  0  0  0  0  0  0  0  0  0
    0.5598   -1.1926   -1.0333 O   0  0  0  0  0  0  0  0  0  0  0  0
   -0.8123   -0.0004    0.3490 N   0  0  0  0  0  0  0  0  0  0  0  0
   -1.9894   -0.6887   -0.0571 C   0  0  1  0  0  0  0  0  0  0  0  0
   -2.7171   -1.3683    1.0752 C   0  0  0  0  0  0  0  0  0  0  0  0
   -3.1228   -0.4560    2.0528 O   0  0  0  0  0  0  0  0  0  0  0  0
   -2.9325    0.2745   -0.6732 C   0  0  0  0  0  0  0  0  0  0  0  0
   -2.6169    1.4866   -0.7616 O   0  0  0  0  0  0  0  0  0  0  0  0
   -4.1763   -0.0867   -1.1726 O   0  0  0  0  0  0  0  0  0  0  0  0
    3.8570    1.2906    1.0466 H   0  0  0  0  0  0  0  0  0  0  0  0
    4.9827    0.1103    0.2350 H   0  0  0  0  0  0  0  0  0  0  0  0
    4.3709    1.5806   -0.6257 H   0  0  0  0  0  0  0  0  0  0  0  0
    3.0418   -1.0856   -0.2354 H   0  0  0  0  0  0  0  0  0  0  0  0
    2.2403    1.0940   -1.8249 H   0  0  0  0  0  0  0  0  0  0  0  0
    1.7704    0.4518    1.4101 H   0  0  0  0  0  0  0  0  0  0  0  0
    1.4842    1.5506    0.0460 H   0  0  0  0  0  0  0  0  0  0  0  0
   -0.8992    0.7492    1.0638 H   0  0  0  0  0  0  0  0  0  0  0  0
   -1.7984   -1.4737   -0.8258 H   0  0  0  0  0  0  0  0  0  0  0  0
   -3.6478   -1.8014    0.6495 H   0  0  0  0  0  0  0  0  0  0  0  0
   -2.1490   -2.2186    1.5052 H   0  0  0  0  0  0  0  0  0  0  0  0
   -2.3405    0.0576    2.3619 H   0  0  0  0  0  0  0  0  0  0  0  0
   -4.9889    0.5175   -1.1189 H   0  0  0  0  0  0  0  0  0  0  0  0
  1  2  1  0
  2  3  1  0
  2  4  1  0
  4  5  1  0
  5  6  2  0
  5  7  1  0
  7  8  1  0
  8  9  1  0
  9 10  1  0
  8 11  1  0
 11 12  2  0
 11 13  1  0
  1 14  1  0
  1 15  1  0
  1 16  1  0
  2 17  1  6
  3 18  1  0
  4 19  1  0
  4 20  1  0
  7 21  1  0
  8 22  1  6
  9 23  1  0
  9 24  1  0
 10 25  1  0
 13 26  1  0
M  END
$$$$

     RDKit          3D

 26 25  0  0  0  0  0  0  0  0999 V2000
    3.0530    1.0307    0.2064 C   0  0  0  0  0  0  0  0  0  0  0  0
    2.9401   -0.4799    0.1983 C   0  0  2  0  0  0  0  0  0  0  0  0
    4.0406   -1.0689   -0.4055 O   0  0  0  0  0  0  0  0  0  0  0  0
    1.6960   -0.8508   -0.5685 C   0  0  0  0  0  0  0  0  0  0  0  0
    0.4912   -0.2651    0.0711 C   0  0  0  0  0  0  0  0  0  0  0  0
    0.6508    0.4334    1.1213 O   0  0  0  0  0  0  0  0  0  0  0  0
   -0.8073   -0.4518   -0.4362 N   0  0  0  0  0  0  0  0  0  0  0  0
   -1.9329    0.1373    0.2227 C   0  0  1  0  0  0  0  0  0  0  0  0
   -2.7309    1.0390   -0.7154 C   0  0  0  0  0  0  0  0  0  0  0  0
   -1.9440    2.0769   -1.2027 O   0  0  0  0  0  0  0  0  0  0  0  0
   -2.8637   -0.9454    0.6350 C   0  0  0  0  0  0  0  0  0  0  0  0
   -2.6021   -2.1404    0.3926 O   0  0  0  0  0  0  0  0  0  0  0  0
   -4.0315   -0.6454    1.2923 O   0  0  0  0  0  0  0  0  0  0  0  0
    2.8885    1.4321    1.2071 H   0  0  0  0  0  0  0  0  0  0  0  0
    4.0489    1.3604   -0.1663 H   0  0  0  0  0  0  0  0  0  0  0  0
    2.2934    1.4984   -0.4706 H   0  0  0  0  0  0  0  0  0  0  0  0
    2.8377   -0.8821    1.2285 H   0  0  0  0  0  0  0  0  0  0  0  0
    4.2374   -1.9253    0.0644 H   0  0  0  0  0  0  0  0  0  0  0  0
    1.5572   -1.9523   -0.5603 H   0  0  0  0  0  0  0  0  0  0  0  0
    1.8190   -0.5018   -1.6282 H   0  0  0  0  0  0  0  0  0  0  0  0
   -0.8940   -1.0339   -1.3032 H   0  0  0  0  0  0  0  0  0  0  0  0
   -1.5908    0.7012    1.1089 H   0  0  0  0  0  0  0  0  0  0  0  0
   -3.1209    0.4118   -1.5253 H   0  0  0  0  0  0  0  0  0  0  0  0
   -3.5445    1.4746   -0.0849 H   0  0  0  0  0  0  0  0  0  0  0  0
   -1.9965    2.8518   -0.5862 H   0  0  0  0  0  0  0  0  0  0  0  0
   -4.4948   -1.3044    1.9048 H   0  0  0  0  0  0  0  0  0  0  0  0
  1  2  1  0
  2  3  1  0
  2  4  1  0
  4  5  1  0
  5  6  2  0
  5  7  1  0
  7  8  1  0
  8  9  1  0
  9 10  1  0
  8 11  1  0
 11 12  2  0
 11 13  1  0
  1 14  1  0
  1 15  1  0
  1 16  1  0
  2 17  1  1
  3 18  1  0
  4 19  1  0
  4 20  1  0
  7 21  1  0
  8 22  1  1
  9 23  1  0
  9 24  1  0
 10 25  1  0
 13 26  1  0
M  END
$$$$
