
     RDKit          3D

 29 29  0  0  0  0  0  0  0  0999 V2000
   -2.8354    0.0162    1.2170 C   0  0  0  0  0  0  0  0  0  0  0  0
   -2.0363    0.2358   -0.0190 C   0  0  0  0  0  0  0  0  0  0  0  0
   -2.6670    1.4095   -0.7778 C   0  0  0  0  0  0  0  0  0  0  0  0
   -1.9807   -0.8967   -0.7802 O   0  0  0  0  0  0  0  0  0  0  0  0
   -0.6393   -1.2570   -0.9508 C   0  0  0  0  0  0  0  0  0  0  0  0
    0.0346    0.0808   -0.9635 C   0  0  2  0  0  0  0  0  0  0  0  0
    1.4276    0.0940   -1.0070 N   0  0  0  0  0  0  0  0  0  0  0  0
    2.2575   -0.4845   -0.0388 C   0  0  0  0  0  0  0  0  0  0  0  0
    1.8275   -1.4548    0.6615 N   0  0  0  0  0  0  0  0  0  0  0  0
    3.5801   -0.0117    0.1842 N   0  0  0  0  0  0  0  0  0  0  0  0
    4.3290   -0.4537    1.2579 N   0  0  0  0  0  0  0  0  0  0  0  0
   -0.6023    0.6742    0.2760 C   0  0  2  0  0  0  0  0  0  0  0  0
   -0.2263    0.0660    1.4448 O   0  0  0  0  0  0  0  0  0  0  0  0
   -2.5534    0.6509    2.0686 H   0  0  0  0  0  0  0  0  0  0  0  0
   -2.8374   -1.0694    1.4596 H   0  0  0  0  0  0  0  0  0  0  0  0
   -3.9011    0.2848    0.9781 H   0  0  0  0  0  0  0  0  0  0  0  0
   -3.2478    2.0277   -0.0670 H   0  0  0  0  0  0  0  0  0  0  0  0
   -1.8943    2.0641   -1.2254 H   0  0  0  0  0  0  0  0  0  0  0  0
   -3.3386    1.0386   -1.5782 H   0  0  0  0  0  0  0  0  0  0  0  0
   -0.3791   -1.8983   -0.0997 H   0  0  0  0  0  0  0  0  0  0  0  0
   -0.5026   -1.8289   -1.8856 H   0  0  0  0  0  0  0  0  0  0  0  0
   -0.4159    0.6479   -1.8220 H   0  0  0  0  0  0  0  0  0  0  0  0
    1.9203    0.5721   -1.8241 H   0  0  0  0  0  0  0  0  0  0  0  0
    2.3711   -1.9467    1.4026 H   0  0  0  0  0  0  0  0  0  0  0  0
    4.0038    0.6959   -0.4868 H   0  0  0  0  0  0  0  0  0  0  0  0
    5.2650   -0.7639    0.9213 H   0  0  0  0  0  0  0  0  0  0  0  0
    4.4365    0.3047    1.9699 H   0  0  0  0  0  0  0  0  0  0  0  0
   -0.5200    1.7775    0.3079 H   0  0  0  0  0  0  0  0  0  0  0  0
   -0.8755   -0.5751    1.8092 H   0  0  0  0  0  0  0  0  0  0  0  0
  1  2  1  0
  2  3  1  0
  2  4  1  0
  4  5  1  0
  5  6  1  0
  6  7  1  0
  7  8  1  0
  8  9  2  3
  8 10  1  0
 10 11  1  0
  6 12  1  0
 12 13  1  0
 12  2  1  0
  1 14  1  0
  1 15  1  0
  1 16  1  0
  3 17  1  0
  3 18  1  0
  3 19  1  0
  5 20  1  0
  5 21  1  0
  6 22  1  6
  7 23  1  0
  9 24  1  0
 10 25  1  0
 11 26  1  0
 11 27  1  0
 12 28  1  1
 13 29  1  0
M  END
$$$$

     RDKit          3D

 29 29  0  0  0  0  0  0  0  0999 V2000
   -3.2314   -0.6170    0.8500 C   0  0  0  0  0  0  0  0  0  0  0  0
   -2.1767   -0.1347   -0.1295 C   0  0  0  0  0  0  0  0  0  0  0  0
   -2.8284    0.5166   -1.3033 C   0  0  0  0  0  0  0  0  0  0  0  0
   -1.3888   -1.1882   -0.5731 O   0  0  0  0  0  0  0  0  0  0  0  0
   -0.2293   -0.6380   -1.0632 C   0  0  0  0  0  0  0  0  0  0  0  0
    0.0457    0.6253   -0.2667 C   0  0  2  0  0  0  0  0  0  0  0  0
    1.2074    0.3675    0.5460 N   0  0  0  0  0  0  0  0  0  0  0  0
    2.4444    0.0261   -0.0787 C   0  0  0  0  0  0  0  0  0  0  0  0
    2.4920    0.0202   -1.3496 N   0  0  0  0  0  0  0  0  0  0  0  0
    3.5886   -0.2975    0.6948 N   0  0  0  0  0  0  0  0  0  0  0  0
    4.8769   -0.3418    0.1284 N   0  0  0  0  0  0  0  0  0  0  0  0
   -1.1815    0.7370    0.5796 C   0  0  2  0  0  0  0  0  0  0  0  0
   -0.9008    0.1111    1.8146 O   0  0  0  0  0  0  0  0  0  0  0  0
   -3.1382   -0.1202    1.8372 H   0  0  0  0  0  0  0  0  0  0  0  0
   -3.1574   -1.7246    0.9956 H   0  0  0  0  0  0  0  0  0  0  0  0
   -4.2540   -0.3486    0.4699 H   0  0  0  0  0  0  0  0  0  0  0  0
   -2.3312    0.2590   -2.2532 H   0  0  0  0  0  0  0  0  0  0  0  0
   -2.8470    1.6232   -1.2328 H   0  0  0  0  0  0  0  0  0  0  0  0
   -3.8883    0.1317   -1.3580 H   0  0  0  0  0  0  0  0  0  0  0  0
    0.6002   -1.3751   -0.9783 H   0  0  0  0  0  0  0  0  0  0  0  0
   -0.2945   -0.3890   -2.1538 H   0  0  0  0  0  0  0  0  0  0  0  0
    0.1638    1.5143   -0.9148 H   0  0  0  0  0  0  0  0  0  0  0  0
    1.1076    0.4394    1.5805 H   0  0  0  0  0  0  0  0  0  0  0  0
    3.3597   -0.2188   -1.8611 H   0  0  0  0  0  0  0  0  0  0  0  0
    3.4648   -0.5073    1.7098 H   0  0  0  0  0  0  0  0  0  0  0  0
    5.4860    0.3202    0.6969 H   0  0  0  0  0  0  0  0  0  0  0  0
    5.2627   -1.3016    0.3326 H   0  0  0  0  0  0  0  0  0  0  0  0
   -1.5287    1.7627    0.7547 H   0  0  0  0  0  0  0  0  0  0  0  0
   -0.7235    0.7478    2.5256 H   0  0  0  0  0  0  0  0  0  0  0  0
  1  2  1  0
  2  3  1  0
  2  4  1  0
  4  5  1  0
  5  6  1  0
  6  7  1  0
  7  8  1  0
  8  9  2  3
  8 10  1  0
 10 11  1  0
  6 12  1  0
 12 13  1  0
 12  2  1  0
  1 14  1  0
  1 15  1  0
  1 16  1  0
  3 17  1  0
  3 18  1  0
  3 19  1  0
  5 20  1  0
  5 21  1  0
  6 22  1  6
  7 23  1  0
  9 24  1  0
 10 25  1  0
 11 26  1  0
 11 27  1  0
 12 28  1  1
 13 29  1  0
M  END
$$$$

     RDKit          3D

 29 29  0  0  0  0  0  0  0  0999 V2000
   -2.9353   -0.8201   -0.2020 C   0  0  0  0  0  0  0  0  0  0  0  0
   -2.1032    0.2752    0.3927 C   0  0  0  0  0  0  0  0  0  0  0  0
   -2.9876    1.3893    0.8951 C   0  0  0  0  0  0  0  0  0  0  0  0
   -1.3109   -0.2133    1.4526 O   0  0  0  0  0  0  0  0  0  0  0  0
   -0.3310   -0.9774    0.8474 C   0  0  0  0  0  0  0  0  0  0  0  0
    0.0095   -0.3093   -0.4685 C   0  0  2  0  0  0  0  0  0  0  0  0
    1.2996    0.3176   -0.3726 N   0  0  0  0  0  0  0  0  0  0  0  0
    2.4819   -0.4136   -0.0799 C   0  0  0  0  0  0  0  0  0  0  0  0
    2.4768   -1.6880   -0.1341 N   0  0  0  0  0  0  0  0  0  0  0  0
    3.7027    0.2255    0.2801 N   0  0  0  0  0  0  0  0  0  0  0  0
    4.8899   -0.5088    0.3084 N   0  0  0  0  0  0  0  0  0  0  0  0
   -1.0541    0.7569   -0.5642 C   0  0  2  0  0  0  0  0  0  0  0  0
   -0.5742    2.0138   -0.2562 O   0  0  0  0  0  0  0  0  0  0  0  0
   -4.0097   -0.4992   -0.2655 H   0  0  0  0  0  0  0  0  0  0  0  0
   -2.5982   -1.0550   -1.2307 H   0  0  0  0  0  0  0  0  0  0  0  0
   -2.8387   -1.7733    0.3931 H   0  0  0  0  0  0  0  0  0  0  0  0
   -3.6026    1.7375    0.0378 H   0  0  0  0  0  0  0  0  0  0  0  0
   -3.6129    0.9815    1.7050 H   0  0  0  0  0  0  0  0  0  0  0  0
   -2.3825    2.2562    1.2316 H   0  0  0  0  0  0  0  0  0  0  0  0
    0.5747   -1.0118    1.5027 H   0  0  0  0  0  0  0  0  0  0  0  0
   -0.7079   -2.0122    0.6786 H   0  0  0  0  0  0  0  0  0  0  0  0
   -0.0391   -1.0297   -1.3062 H   0  0  0  0  0  0  0  0  0  0  0  0
    1.3812    1.3378   -0.5208 H   0  0  0  0  0  0  0  0  0  0  0  0
    1.6679   -2.2874   -0.3800 H   0  0  0  0  0  0  0  0  0  0  0  0
    3.7002    1.2333    0.5188 H   0  0  0  0  0  0  0  0  0  0  0  0
    5.0767   -1.0166   -0.5860 H   0  0  0  0  0  0  0  0  0  0  0  0
    5.6903    0.1183    0.5446 H   0  0  0  0  0  0  0  0  0  0  0  0
   -1.4465    0.8082   -1.6196 H   0  0  0  0  0  0  0  0  0  0  0  0
   -0.4168    2.1646    0.6941 H   0  0  0  0  0  0  0  0  0  0  0  0
  1  2  1  0
  2  3  1  0
  2  4  1  0
  4  5  1  0
  5  6  1  0
  6  7  1  0
  7  8  1  0
  8  9  2  3
  8 10  1  0
 10 11  1  0
  6 12  1  0
 12 13  1  0
 12  2  1  0
  1 14  1  0
  1 15  1  0
  1 16  1  0
  3 17  1  0
  3 18  1  0
  3 19  1  0
  5 20  1  0
  5 21  1  0
  6 22  1  6
  7 23  1  0
  9 24  1  0
 10 25  1  0
 11 26  1  0
 11 27  1  0
 12 28  1  6
 13 29  1  0
M  END
$$$$

     RDKit          3D

 29 29  0  0  0  0  0  0  0  0999 V2000
   -3.1829    0.8167    0.6006 C   0  0  0  0  0  0  0  0  0  0  0  0
   -2.1523   -0.2313    0.2872 C   0  0  0  0  0  0  0  0  0  0  0  0
   -2.8070   -1.5013   -0.2623 C   0  0  0  0  0  0  0  0  0  0  0  0
   -1.4551   -0.5374    1.4232 O   0  0  0  0  0  0  0  0  0  0  0  0
   -0.1595   -0.1139    1.2982 C   0  0  0  0  0  0  0  0  0  0  0  0
    0.1235   -0.3481   -0.1739 C   0  0  2  0  0  0  0  0  0  0  0  0
    1.2857    0.3640   -0.6326 N   0  0  0  0  0  0  0  0  0  0  0  0
    2.5261    0.0677   -0.0073 C   0  0  0  0  0  0  0  0  0  0  0  0
    2.5985   -0.9116    0.8457 N   0  0  0  0  0  0  0  0  0  0  0  0
    3.7163    0.7896   -0.2613 N   0  0  0  0  0  0  0  0  0  0  0  0
    4.9977    0.2893    0.0475 N   0  0  0  0  0  0  0  0  0  0  0  0
   -1.1602    0.2179   -0.7645 C   0  0  2  0  0  0  0  0  0  0  0  0
   -1.0852    1.5953   -0.8797 O   0  0  0  0  0  0  0  0  0  0  0  0
   -2.7452    1.5393    1.3033 H   0  0  0  0  0  0  0  0  0  0  0  0
   -4.0053    0.2951    1.1616 H   0  0  0  0  0  0  0  0  0  0  0  0
   -3.6552    1.2591   -0.2840 H   0  0  0  0  0  0  0  0  0  0  0  0
   -3.0346   -2.1889    0.5699 H   0  0  0  0  0  0  0  0  0  0  0  0
   -3.6799   -1.2704   -0.8972 H   0  0  0  0  0  0  0  0  0  0  0  0
   -2.0719   -2.0376   -0.9214 H   0  0  0  0  0  0  0  0  0  0  0  0
   -0.0552    0.9840    1.5107 H   0  0  0  0  0  0  0  0  0  0  0  0
    0.5009   -0.7199    1.9560 H   0  0  0  0  0  0  0  0  0  0  0  0
    0.1459   -1.4254   -0.3602 H   0  0  0  0  0  0  0  0  0  0  0  0
    1.2749    1.0792   -1.3903 H   0  0  0  0  0  0  0  0  0  0  0  0
    3.4688   -1.1750    1.3316 H   0  0  0  0  0  0  0  0  0  0  0  0
    3.6278    1.7447   -0.7020 H   0  0  0  0  0  0  0  0  0  0  0  0
    5.1390    0.2322    1.0825 H   0  0  0  0  0  0  0  0  0  0  0  0
    5.0167   -0.6936   -0.3071 H   0  0  0  0  0  0  0  0  0  0  0  0
   -1.3794   -0.2021   -1.7563 H   0  0  0  0  0  0  0  0  0  0  0  0
   -1.7932    2.0821   -0.4196 H   0  0  0  0  0  0  0  0  0  0  0  0
  1  2  1  0
  2  3  1  0
  2  4  1  0
  4  5  1  0
  5  6  1  0
  6  7  1  0
  7  8  1  0
  8  9  2  3
  8 10  1  0
 10 11  1  0
  6 12  1  0
 12 13  1  0
 12  2  1  0
  1 14  1  0
  1 15  1  0
  1 16  1  0
  3 17  1  0
  3 18  1  0
  3 19  1  0
  5 20  1  0
  5 21  1  0
  6 22  1  1
  7 23  1  0
  9 24  1  0
 10 25  1  0
 11 26  1  0
 11 27  1  0
 12 28  1  6
 13 29  1  0
M  END
$$$$

     RDKit          3D

 29 29  0  0  0  0  0  0  0  0999 V2000
   -2.4316    0.6123    1.4251 C   0  0  0  0  0  0  0  0  0  0  0  0
   -2.1118   -0.1218    0.1284 C   0  0  0  0  0  0  0  0  0  0  0  0
   -3.0451   -1.2622   -0.0869 C   0  0  0  0  0  0  0  0  0  0  0  0
   -2.2139    0.7758   -0.8967 O   0  0  0  0  0  0  0  0  0  0  0  0
   -0.9772    1.2486   -1.2315 C   0  0  0  0  0  0  0  0  0  0  0  0
    0.0224    0.7131   -0.2277 C   0  0  2  0  0  0  0  0  0  0  0  0
    1.2860    0.5887   -0.8340 N   0  0  0  0  0  0  0  0  0  0  0  0
    2.3959    0.1053   -0.0978 C   0  0  0  0  0  0  0  0  0  0  0  0
    2.1280   -0.5210    0.9965 N   0  0  0  0  0  0  0  0  0  0  0  0
    3.7417    0.2919   -0.5279 N   0  0  0  0  0  0  0  0  0  0  0  0
    4.8078   -0.0008    0.3010 N   0  0  0  0  0  0  0  0  0  0  0  0
   -0.6447   -0.5727    0.1721 C   0  0  2  0  0  0  0  0  0  0  0  0
   -0.4118   -1.6096   -0.6991 O   0  0  0  0  0  0  0  0  0  0  0  0
   -3.1630    0.0479    2.0281 H   0  0  0  0  0  0  0  0  0  0  0  0
   -1.4733    0.7957    1.9878 H   0  0  0  0  0  0  0  0  0  0  0  0
   -2.8704    1.6171    1.2296 H   0  0  0  0  0  0  0  0  0  0  0  0
   -3.8495   -1.2475    0.7057 H   0  0  0  0  0  0  0  0  0  0  0  0
   -2.5759   -2.2487   -0.0223 H   0  0  0  0  0  0  0  0  0  0  0  0
   -3.5841   -1.2233   -1.0705 H   0  0  0  0  0  0  0  0  0  0  0  0
   -0.7080    0.8879   -2.2648 H   0  0  0  0  0  0  0  0  0  0  0  0
   -0.9673    2.3609   -1.2481 H   0  0  0  0  0  0  0  0  0  0  0  0
    0.0018    1.3767    0.6629 H   0  0  0  0  0  0  0  0  0  0  0  0
    1.4258    0.8483   -1.8276 H   0  0  0  0  0  0  0  0  0  0  0  0
    2.9316   -0.8836    1.5512 H   0  0  0  0  0  0  0  0  0  0  0  0
    3.9353    0.6623   -1.5023 H   0  0  0  0  0  0  0  0  0  0  0  0
    4.6744    0.3624    1.2529 H   0  0  0  0  0  0  0  0  0  0  0  0
    5.1535   -0.9664    0.2461 H   0  0  0  0  0  0  0  0  0  0  0  0
   -0.3697   -0.8659    1.2055 H   0  0  0  0  0  0  0  0  0  0  0  0
   -1.1069   -1.7714   -1.3554 H   0  0  0  0  0  0  0  0  0  0  0  0
  1  2  1  0
  2  3  1  0
  2  4  1  0
  4  5  1  0
  5  6  1  0
  6  7  1  0
  7  8  1  0
  8  9  2  3
  8 10  1  0
 10 11  1  0
  6 12  1  0
 12 13  1  0
 12  2  1  0
  1 14  1  0
  1 15  1  0
  1 16  1  0
  3 17  1  0
  3 18  1  0
  3 19  1  0
  5 20  1  0
  5 21  1  0
  6 22  1  1
  7 23  1  0
  9 24  1  0
 10 25  1  0
 11 26  1  0
 11 27  1  0
 12 28  1  1
 13 29  1  0
M  END
$$$$

     RDKit          3D

 29 29  0  0  0  0  0  0  0  0999 V2000
   -2.4826    1.1046   -1.0205 C   0  0  0  0  0  0  0  0  0  0  0  0
   -2.0265    0.1821    0.0685 C   0  0  0  0  0  0  0  0  0  0  0  0
   -2.8862    0.3630    1.2953 C   0  0  0  0  0  0  0  0  0  0  0  0
   -2.0614   -1.1291   -0.3862 O   0  0  0  0  0  0  0  0  0  0  0  0
   -0.9598   -1.3245   -1.1839 C   0  0  0  0  0  0  0  0  0  0  0  0
    0.0707   -0.2929   -0.8272 C   0  0  2  0  0  0  0  0  0  0  0  0
    1.3409   -0.8903   -0.4547 N   0  0  0  0  0  0  0  0  0  0  0  0
    2.4482   -0.0859   -0.0793 C   0  0  0  0  0  0  0  0  0  0  0  0
    2.4404    1.1608   -0.3591 N   0  0  0  0  0  0  0  0  0  0  0  0
    3.5840   -0.6007    0.6025 N   0  0  0  0  0  0  0  0  0  0  0  0
    4.5389    0.2279    1.2038 N   0  0  0  0  0  0  0  0  0  0  0  0
   -0.5499    0.3525    0.3932 C   0  0  2  0  0  0  0  0  0  0  0  0
   -0.2760   -0.4798    1.4763 O   0  0  0  0  0  0  0  0  0  0  0  0
   -3.0466    1.9715   -0.6006 H   0  0  0  0  0  0  0  0  0  0  0  0
   -1.6681    1.5081   -1.6322 H   0  0  0  0  0  0  0  0  0  0  0  0
   -3.2103    0.5214   -1.6515 H   0  0  0  0  0  0  0  0  0  0  0  0
   -3.8486   -0.2078    1.1871 H   0  0  0  0  0  0  0  0  0  0  0  0
   -2.3967    0.0593    2.2279 H   0  0  0  0  0  0  0  0  0  0  0  0
   -3.1384    1.4406    1.3850 H   0  0  0  0  0  0  0  0  0  0  0  0
   -0.5396   -2.3440   -1.1311 H   0  0  0  0  0  0  0  0  0  0  0  0
   -1.2663   -1.1378   -2.2420 H   0  0  0  0  0  0  0  0  0  0  0  0
    0.2514    0.4250   -1.6509 H   0  0  0  0  0  0  0  0  0  0  0  0
    1.4574   -1.9219   -0.4579 H   0  0  0  0  0  0  0  0  0  0  0  0
    1.6689    1.6490   -0.8529 H   0  0  0  0  0  0  0  0  0  0  0  0
    3.7207   -1.6219    0.6630 H   0  0  0  0  0  0  0  0  0  0  0  0
    4.5409    1.1400    0.6964 H   0  0  0  0  0  0  0  0  0  0  0  0
    5.4692   -0.2182    1.2683 H   0  0  0  0  0  0  0  0  0  0  0  0
   -0.2648    1.3899    0.5435 H   0  0  0  0  0  0  0  0  0  0  0  0
   -0.9096   -1.2408    1.5193 H   0  0  0  0  0  0  0  0  0  0  0  0
  1  2  1  0
  2  3  1  0
  2  4  1  0
  4  5  1  0
  5  6  1  0
  6  7  1  0
  7  8  1  0
  8  9  2  3
  8 10  1  0
 10 11  1  0
  6 12  1  0
 12 13  1  0
 12  2  1  0
  1 14  1  0
  1 15  1  0
  1 16  1  0
  3 17  1  0
  3 18  1  0
  3 19  1  0
  5 20  1  0
  5 21  1  0
  6 22  1  6
  7 23  1  0
  9 24  1  0
 10 25  1  0
 11 26  1  0
 11 27  1  0
 12 28  1  1
 13 29  1  0
M  END
$$$$

     RDKit          3D

 29 29  0  0  0  0  0  0  0  0999 V2000
   -2.1700    0.4883    1.1893 C   0  0  0  0  0  0  0  0  0  0  0  0
   -1.9866    0.2205   -0.2812 C   0  0  0  0  0  0  0  0  0  0  0  0
   -2.8063    1.2280   -1.0505 C   0  0  0  0  0  0  0  0  0  0  0  0
   -2.3551   -1.0924   -0.5606 O   0  0  0  0  0  0  0  0  0  0  0  0
   -1.2364   -1.8763   -0.2600 C   0  0  0  0  0  0  0  0  0  0  0  0
   -0.0367   -1.1146   -0.7122 C   0  0  2  0  0  0  0  0  0  0  0  0
    1.0581   -1.1862    0.2502 N   0  0  0  0  0  0  0  0  0  0  0  0
    2.2668   -0.5027   -0.0550 C   0  0  0  0  0  0  0  0  0  0  0  0
    2.4863   -0.2355   -1.2997 N   0  0  0  0  0  0  0  0  0  0  0  0
    3.1975   -0.1292    0.9799 N   0  0  0  0  0  0  0  0  0  0  0  0
    4.3297    0.6101    0.6064 N   0  0  0  0  0  0  0  0  0  0  0  0
   -0.5395    0.3264   -0.6936 C   0  0  2  0  0  0  0  0  0  0  0  0
    0.1616    1.1089    0.2035 O   0  0  0  0  0  0  0  0  0  0  0  0
   -1.5862   -0.2158    1.8176 H   0  0  0  0  0  0  0  0  0  0  0  0
   -1.9171    1.5315    1.4284 H   0  0  0  0  0  0  0  0  0  0  0  0
   -3.2498    0.3522    1.4184 H   0  0  0  0  0  0  0  0  0  0  0  0
   -3.6550    1.6260   -0.4558 H   0  0  0  0  0  0  0  0  0  0  0  0
   -2.1940    2.1114   -1.3618 H   0  0  0  0  0  0  0  0  0  0  0  0
   -3.2528    0.7880   -1.9670 H   0  0  0  0  0  0  0  0  0  0  0  0
   -1.2174   -2.0200    0.8290 H   0  0  0  0  0  0  0  0  0  0  0  0
   -1.3346   -2.8406   -0.8178 H   0  0  0  0  0  0  0  0  0  0  0  0
    0.3165   -1.3819   -1.7190 H   0  0  0  0  0  0  0  0  0  0  0  0
    0.9732   -1.7145    1.1334 H   0  0  0  0  0  0  0  0  0  0  0  0
    3.3722    0.2660   -1.5274 H   0  0  0  0  0  0  0  0  0  0  0  0
    2.9984   -0.4190    1.9609 H   0  0  0  0  0  0  0  0  0  0  0  0
    3.9863    1.4309    0.0380 H   0  0  0  0  0  0  0  0  0  0  0  0
    4.8129    0.9695    1.4580 H   0  0  0  0  0  0  0  0  0  0  0  0
   -0.4450    0.8055   -1.6899 H   0  0  0  0  0  0  0  0  0  0  0  0
    0.0230    0.8656    1.1386 H   0  0  0  0  0  0  0  0  0  0  0  0
  1  2  1  0
  2  3  1  0
  2  4  1  0
  4  5  1  0
  5  6  1  0
  6  7  1  0
  7  8  1  0
  8  9  2  3
  8 10  1  0
 10 11  1  0
  6 12  1  0
 12 13  1  0
 12  2  1  0
  1 14  1  0
  1 15  1  0
  1 16  1  0
  3 17  1  0
  3 18  1  0
  3 19  1  0
  5 20  1  0
  5 21  1  0
  6 22  1  6
  7 23  1  0
  9 24  1  0
 10 25  1  0
 11 26  1  0
 11 27  1  0
 12 28  1  6
 13 29  1  0
M  END
$$$$

     RDKit          3D

 29 29  0  0  0  0  0  0  0  0999 V2000
   -3.2350   -0.1198    0.6662 C   0  0  0  0  0  0  0  0  0  0  0  0
   -1.7959    0.1819    0.2507 C   0  0  0  0  0  0  0  0  0  0  0  0
   -1.7857    1.6060   -0.2478 C   0  0  0  0  0  0  0  0  0  0  0  0
   -0.9792    0.0440    1.3421 O   0  0  0  0  0  0  0  0  0  0  0  0
    0.0169   -0.8479    1.0667 C   0  0  0  0  0  0  0  0  0  0  0  0
    0.0238   -1.1052   -0.4247 C   0  0  2  0  0  0  0  0  0  0  0  0
    0.9618   -0.2099   -1.0230 N   0  0  0  0  0  0  0  0  0  0  0  0
    2.3315   -0.3093   -0.5834 C   0  0  0  0  0  0  0  0  0  0  0  0
    2.7850   -1.3817   -0.0400 N   0  0  0  0  0  0  0  0  0  0  0  0
    3.2180    0.7922   -0.7449 N   0  0  0  0  0  0  0  0  0  0  0  0
    4.4064    0.9330   -0.0184 N   0  0  0  0  0  0  0  0  0  0  0  0
   -1.4038   -0.8142   -0.7845 C   0  0  2  0  0  0  0  0  0  0  0  0
   -1.5482   -0.3515   -2.0843 O   0  0  0  0  0  0  0  0  0  0  0  0
   -3.4215    0.3601    1.6577 H   0  0  0  0  0  0  0  0  0  0  0  0
   -3.9145    0.3256   -0.0880 H   0  0  0  0  0  0  0  0  0  0  0  0
   -3.4180   -1.2051    0.6748 H   0  0  0  0  0  0  0  0  0  0  0  0
   -1.1932    1.7673   -1.1432 H   0  0  0  0  0  0  0  0  0  0  0  0
   -1.4149    2.2571    0.5767 H   0  0  0  0  0  0  0  0  0  0  0  0
   -2.8276    1.9832   -0.4583 H   0  0  0  0  0  0  0  0  0  0  0  0
    0.9885   -0.3982    1.3787 H   0  0  0  0  0  0  0  0  0  0  0  0
   -0.1378   -1.8499    1.5482 H   0  0  0  0  0  0  0  0  0  0  0  0
    0.3311   -2.1379   -0.6597 H   0  0  0  0  0  0  0  0  0  0  0  0
    0.7602    0.5115   -1.7476 H   0  0  0  0  0  0  0  0  0  0  0  0
    3.7767   -1.4082    0.2609 H   0  0  0  0  0  0  0  0  0  0  0  0
    2.9591    1.5360   -1.4499 H   0  0  0  0  0  0  0  0  0  0  0  0
    4.5582    1.9518    0.2255 H   0  0  0  0  0  0  0  0  0  0  0  0
    4.2428    0.4677    0.9131 H   0  0  0  0  0  0  0  0  0  0  0  0
   -1.9815   -1.7463   -0.6086 H   0  0  0  0  0  0  0  0  0  0  0  0
   -2.3032   -0.8325   -2.5212 H   0  0  0  0  0  0  0  0  0  0  0  0
  1  2  1  0
  2  3  1  0
  2  4  1  0
  4  5  1  0
  5  6  1  0
  6  7  1  0
  7  8  1  0
  8  9  2  3
  8 10  1  0
 10 11  1  0
  6 12  1  0
 12 13  1  0
 12  2  1  0
  1 14  1  0
  1 15  1  0
  1 16  1  0
  3 17  1  0
  3 18  1  0
  3 19  1  0
  5 20  1  0
  5 21  1  0
  6 22  1  1
  7 23  1  0
  9 24  1  0
 10 25  1  0
 11 26  1  0
 11 27  1  0
 12 28  1  6
 13 29  1  0
M  END
$$$$
