
     RDKit          3D

 27 28  0  0  0  0  0  0  0  0999 V2000
    2.0371    0.5281   -1.7832 O   0  0  0  0  0  0  0  0  0  0  0  0
    1.4625    0.2719   -0.6659 C   0  0  0  0  0  0  0  0  0  0  0  0
    2.3228   -0.2491    0.3870 C   0  0  0  0  0  0  0  0  0  0  0  0
    3.7109   -0.3816   -0.0435 N   0  0  0  0  0  0  0  0  0  0  0  0
    4.4949   -0.8587    0.9232 O   0  0  0  0  0  0  0  0  0  0  0  0
    0.0812    0.5097   -0.5483 N   0  0  0  0  0  0  0  0  0  0  0  0
   -0.7177    1.0622   -1.6839 C   0  0  0  0  0  0  0  0  0  0  0  0
   -1.8943    0.1406   -1.6814 C   0  0  2  0  0  0  0  0  0  0  0  0
   -3.0774    0.4785   -0.8472 C   0  0  0  0  0  0  0  0  0  0  0  0
   -2.0356   -0.3553   -0.2469 C   0  0  2  0  0  0  0  0  0  0  0  0
   -0.8928    0.3593    0.4771 C   0  0  1  0  0  0  0  0  0  0  0  0
   -0.5162   -0.4112    1.6880 C   0  0  0  0  0  0  0  0  0  0  0  0
   -1.6648   -0.3882    2.5341 O   0  0  0  0  0  0  0  0  0  0  0  0
    1.9446   -1.2287    0.7345 H   0  0  0  0  0  0  0  0  0  0  0  0
    2.3498    0.4557    1.2675 H   0  0  0  0  0  0  0  0  0  0  0  0
    4.0660    0.4626   -0.4988 H   0  0  0  0  0  0  0  0  0  0  0  0
    4.2449   -1.7692    1.1602 H   0  0  0  0  0  0  0  0  0  0  0  0
   -0.1529    1.0364   -2.6180 H   0  0  0  0  0  0  0  0  0  0  0  0
   -1.0261    2.0875   -1.3709 H   0  0  0  0  0  0  0  0  0  0  0  0
   -2.0017   -0.6100   -2.5040 H   0  0  0  0  0  0  0  0  0  0  0  0
   -3.1342    1.5279   -0.5018 H   0  0  0  0  0  0  0  0  0  0  0  0
   -4.0460   -0.0064   -1.0917 H   0  0  0  0  0  0  0  0  0  0  0  0
   -2.1558   -1.4439   -0.0784 H   0  0  0  0  0  0  0  0  0  0  0  0
   -1.2568    1.3796    0.7449 H   0  0  0  0  0  0  0  0  0  0  0  0
   -0.2486   -1.4616    1.4943 H   0  0  0  0  0  0  0  0  0  0  0  0
    0.2532    0.1112    2.2809 H   0  0  0  0  0  0  0  0  0  0  0  0
   -2.1470   -1.2471    2.4723 H   0  0  0  0  0  0  0  0  0  0  0  0
  1  2  2  0
  2  3  1  0
  3  4  1  0
  4  5  1  0
  2  6  1  0
  6  7  1  0
  7  8  1  0
  8  9  1  0
  9 10  1  0
 10 11  1  0
 11 12  1  0
 12 13  1  0
 11  6  1  0
 10  8  1  0
  3 14  1  0
  3 15  1  0
  4 16  1  0
  5 17  1  0
  7 18  1  0
  7 19  1  0
  8 20  1  6
  9 21  1  0
  9 22  1  0
 10 23  1  6
 11 24  1  1
 12 25  1  0
 12 26  1  0
 13 27  1  0
M  END
$$$$

     RDKit          3D

 27 28  0  0  0  0  0  0  0  0999 V2000
    1.2814   -1.5360    1.1612 O   0  0  0  0  0  0  0  0  0  0  0  0
    1.2426   -0.5186    0.3910 C   0  0  0  0  0  0  0  0  0  0  0  0
    2.5034   -0.1684   -0.3073 C   0  0  0  0  0  0  0  0  0  0  0  0
    3.5619   -1.0582    0.0179 N   0  0  0  0  0  0  0  0  0  0  0  0
    4.7166   -0.7834   -0.5864 O   0  0  0  0  0  0  0  0  0  0  0  0
    0.0420    0.2215    0.2294 N   0  0  0  0  0  0  0  0  0  0  0  0
   -0.0579    1.3832   -0.6312 C   0  0  0  0  0  0  0  0  0  0  0  0
   -1.4759    1.4730   -1.0946 C   0  0  2  0  0  0  0  0  0  0  0  0
   -2.5632    1.9401   -0.2204 C   0  0  0  0  0  0  0  0  0  0  0  0
   -2.1959    0.4814   -0.2892 C   0  0  2  0  0  0  0  0  0  0  0  0
   -1.2501    0.0410    0.8079 C   0  0  1  0  0  0  0  0  0  0  0  0
   -1.5658   -1.3803    1.1778 C   0  0  0  0  0  0  0  0  0  0  0  0
   -1.5113   -2.1877    0.0199 O   0  0  0  0  0  0  0  0  0  0  0  0
    2.7830    0.8836   -0.0069 H   0  0  0  0  0  0  0  0  0  0  0  0
    2.3301   -0.0972   -1.4187 H   0  0  0  0  0  0  0  0  0  0  0  0
    3.2562   -2.0359   -0.1791 H   0  0  0  0  0  0  0  0  0  0  0  0
    5.4501   -0.6967    0.0792 H   0  0  0  0  0  0  0  0  0  0  0  0
    0.2977    2.2974   -0.1142 H   0  0  0  0  0  0  0  0  0  0  0  0
    0.5990    1.2045   -1.5257 H   0  0  0  0  0  0  0  0  0  0  0  0
   -1.6439    1.5794   -2.1956 H   0  0  0  0  0  0  0  0  0  0  0  0
   -2.3768    2.4927    0.7282 H   0  0  0  0  0  0  0  0  0  0  0  0
   -3.5187    2.2076   -0.6880 H   0  0  0  0  0  0  0  0  0  0  0  0
   -2.9087   -0.2474   -0.7214 H   0  0  0  0  0  0  0  0  0  0  0  0
   -1.3283    0.6661    1.7175 H   0  0  0  0  0  0  0  0  0  0  0  0
   -0.9543   -1.7846    1.9803 H   0  0  0  0  0  0  0  0  0  0  0  0
   -2.6271   -1.4148    1.5030 H   0  0  0  0  0  0  0  0  0  0  0  0
   -2.0861   -2.9623    0.1653 H   0  0  0  0  0  0  0  0  0  0  0  0
  1  2  2  0
  2  3  1  0
  3  4  1  0
  4  5  1  0
  2  6  1  0
  6  7  1  0
  7  8  1  0
  8  9  1  0
  9 10  1  0
 10 11  1  0
 11 12  1  0
 12 13  1  0
 11  6  1  0
 10  8  1  0
  3 14  1  0
  3 15  1  0
  4 16  1  0
  5 17  1  0
  7 18  1  0
  7 19  1  0
  8 20  1  6
  9 21  1  0
  9 22  1  0
 10 23  1  6
 11 24  1  1
 12 25  1  0
 12 26  1  0
 13 27  1  0
M  END
$$$$

     RDKit          3D

 27 28  0  0  0  0  0  0  0  0999 V2000
    1.6079    1.6677    0.4084 O   0  0  0  0  0  0  0  0  0  0  0  0
    1.3849    0.4612    0.1316 C   0  0  0  0  0  0  0  0  0  0  0  0
    2.5475   -0.4662    0.1605 C   0  0  0  0  0  0  0  0  0  0  0  0
    3.7568    0.2436    0.5187 N   0  0  0  0  0  0  0  0  0  0  0  0
    4.8322   -0.5546    0.5571 O   0  0  0  0  0  0  0  0  0  0  0  0
    0.0753    0.0171   -0.1927 N   0  0  0  0  0  0  0  0  0  0  0  0
   -0.2664   -1.3559   -0.5232 C   0  0  0  0  0  0  0  0  0  0  0  0
   -1.6076   -1.5901    0.1343 C   0  0  2  0  0  0  0  0  0  0  0  0
   -2.8674   -1.1668   -0.5122 C   0  0  0  0  0  0  0  0  0  0  0  0
   -2.1335   -0.2198    0.3672 C   0  0  2  0  0  0  0  0  0  0  0  0
   -1.1490    0.7545   -0.2702 C   0  0  1  0  0  0  0  0  0  0  0  0
   -1.1658    2.0565    0.4646 C   0  0  0  0  0  0  0  0  0  0  0  0
   -2.4521    2.6160    0.2669 O   0  0  0  0  0  0  0  0  0  0  0  0
    2.7165   -0.8728   -0.8760 H   0  0  0  0  0  0  0  0  0  0  0  0
    2.3576   -1.3333    0.8232 H   0  0  0  0  0  0  0  0  0  0  0  0
    3.6271    0.7620    1.4136 H   0  0  0  0  0  0  0  0  0  0  0  0
    5.5676   -0.1437    0.0666 H   0  0  0  0  0  0  0  0  0  0  0  0
   -0.3814   -1.5067   -1.6222 H   0  0  0  0  0  0  0  0  0  0  0  0
    0.4711   -2.0245   -0.0818 H   0  0  0  0  0  0  0  0  0  0  0  0
   -1.6555   -2.3656    0.9094 H   0  0  0  0  0  0  0  0  0  0  0  0
   -2.9091   -0.9395   -1.6105 H   0  0  0  0  0  0  0  0  0  0  0  0
   -3.7928   -1.5854   -0.1109 H   0  0  0  0  0  0  0  0  0  0  0  0
   -2.5401    0.0630    1.3601 H   0  0  0  0  0  0  0  0  0  0  0  0
   -1.3834    0.8949   -1.3477 H   0  0  0  0  0  0  0  0  0  0  0  0
   -0.4114    2.7716    0.1299 H   0  0  0  0  0  0  0  0  0  0  0  0
   -1.0840    1.9121    1.5606 H   0  0  0  0  0  0  0  0  0  0  0  0
   -3.1451    1.9049    0.3095 H   0  0  0  0  0  0  0  0  0  0  0  0
  1  2  2  0
  2  3  1  0
  3  4  1  0
  4  5  1  0
  2  6  1  0
  6  7  1  0
  7  8  1  0
  8  9  1  0
  9 10  1  0
 10 11  1  0
 11 12  1  0
 12 13  1  0
 11  6  1  0
 10  8  1  0
  3 14  1  0
  3 15  1  0
  4 16  1  0
  5 17  1  0
  7 18  1  0
  7 19  1  0
  8 20  1  1
  9 21  1  0
  9 22  1  0
 10 23  1  1
 11 24  1  6
 12 25  1  0
 12 26  1  0
 13 27  1  0
M  END
$$$$

     RDKit          3D

 27 28  0  0  0  0  0  0  0  0999 V2000
    1.4517   -1.6580   -0.5999 O   0  0  0  0  0  0  0  0  0  0  0  0
    1.3166   -0.5480   -0.0893 C   0  0  0  0  0  0  0  0  0  0  0  0
    2.4677    0.2253    0.3850 C   0  0  0  0  0  0  0  0  0  0  0  0
    3.6944   -0.5697    0.2424 N   0  0  0  0  0  0  0  0  0  0  0  0
    4.3393   -0.4386    1.4943 O   0  0  0  0  0  0  0  0  0  0  0  0
   -0.0653   -0.0003    0.0618 N   0  0  0  0  0  0  0  0  0  0  0  0
   -0.3479    1.3435    0.5075 C   0  0  0  0  0  0  0  0  0  0  0  0
   -1.7553    1.6521    0.0585 C   0  0  2  0  0  0  0  0  0  0  0  0
   -2.8678    1.0659    0.8469 C   0  0  0  0  0  0  0  0  0  0  0  0
   -2.3487    0.2986   -0.3497 C   0  0  2  0  0  0  0  0  0  0  0  0
   -1.2743   -0.6960   -0.1027 C   0  0  1  0  0  0  0  0  0  0  0  0
   -1.2324   -1.8205   -1.1016 C   0  0  0  0  0  0  0  0  0  0  0  0
   -0.9145   -1.3702   -2.3413 O   0  0  0  0  0  0  0  0  0  0  0  0
    2.6354    1.0580   -0.4262 H   0  0  0  0  0  0  0  0  0  0  0  0
    2.4197    0.7475    1.3202 H   0  0  0  0  0  0  0  0  0  0  0  0
    4.3937   -0.0080   -0.4258 H   0  0  0  0  0  0  0  0  0  0  0  0
    4.3647    0.4850    1.7771 H   0  0  0  0  0  0  0  0  0  0  0  0
   -0.3574    1.3506    1.6063 H   0  0  0  0  0  0  0  0  0  0  0  0
    0.3817    2.0912    0.1228 H   0  0  0  0  0  0  0  0  0  0  0  0
   -1.9421    2.4957   -0.6133 H   0  0  0  0  0  0  0  0  0  0  0  0
   -2.5954    0.7131    1.8723 H   0  0  0  0  0  0  0  0  0  0  0  0
   -3.8743    1.5178    0.7641 H   0  0  0  0  0  0  0  0  0  0  0  0
   -2.9756    0.2488   -1.2394 H   0  0  0  0  0  0  0  0  0  0  0  0
   -1.4720   -1.1848    0.9164 H   0  0  0  0  0  0  0  0  0  0  0  0
   -0.5996   -2.6343   -0.6911 H   0  0  0  0  0  0  0  0  0  0  0  0
   -2.2758   -2.2621   -1.1091 H   0  0  0  0  0  0  0  0  0  0  0  0
   -0.5662   -2.1024   -2.8863 H   0  0  0  0  0  0  0  0  0  0  0  0
  1  2  2  0
  2  3  1  0
  3  4  1  0
  4  5  1  0
  2  6  1  0
  6  7  1  0
  7  8  1  0
  8  9  1  0
  9 10  1  0
 10 11  1  0
 11 12  1  0
 12 13  1  0
 11  6  1  0
 10  8  1  0
  3 14  1  0
  3 15  1  0
  4 16  1  0
  5 17  1  0
  7 18  1  0
  7 19  1  0
  8 20  1  6
  9 21  1  0
  9 22  1  0
 10 23  1  6
 11 24  1  1
 12 25  1  0
 12 26  1  0
 13 27  1  0
M  END
$$$$

     RDKit          3D

 27 28  0  0  0  0  0  0  0  0999 V2000
    0.9064   -2.2561    0.8973 O   0  0  0  0  0  0  0  0  0  0  0  0
    1.1355   -1.0906    0.4010 C   0  0  0  0  0  0  0  0  0  0  0  0
    2.5633   -0.7888    0.1854 C   0  0  0  0  0  0  0  0  0  0  0  0
    2.8425    0.4980   -0.3738 N   0  0  0  0  0  0  0  0  0  0  0  0
    4.1920    0.6156   -0.4882 O   0  0  0  0  0  0  0  0  0  0  0  0
    0.0359   -0.2670    0.1310 N   0  0  0  0  0  0  0  0  0  0  0  0
    0.0691    1.0587   -0.4121 C   0  0  0  0  0  0  0  0  0  0  0  0
   -1.2573    1.6822   -0.0112 C   0  0  2  0  0  0  0  0  0  0  0  0
   -1.5446    1.7467    1.4347 C   0  0  0  0  0  0  0  0  0  0  0  0
   -2.0873    0.6482    0.6176 C   0  0  2  0  0  0  0  0  0  0  0  0
   -1.3564   -0.6171    0.3555 C   0  0  1  0  0  0  0  0  0  0  0  0
   -1.9867   -1.2383   -0.8780 C   0  0  0  0  0  0  0  0  0  0  0  0
   -1.3592   -2.3870   -1.2792 O   0  0  0  0  0  0  0  0  0  0  0  0
    3.1180   -0.9004    1.1505 H   0  0  0  0  0  0  0  0  0  0  0  0
    3.0440   -1.5354   -0.5136 H   0  0  0  0  0  0  0  0  0  0  0  0
    2.4918    0.5674   -1.3675 H   0  0  0  0  0  0  0  0  0  0  0  0
    4.5623    0.7788    0.4022 H   0  0  0  0  0  0  0  0  0  0  0  0
    0.8599    1.6527    0.0713 H   0  0  0  0  0  0  0  0  0  0  0  0
    0.1733    1.0364   -1.5187 H   0  0  0  0  0  0  0  0  0  0  0  0
   -1.6839    2.4048   -0.7243 H   0  0  0  0  0  0  0  0  0  0  0  0
   -0.7860    1.5344    2.2050 H   0  0  0  0  0  0  0  0  0  0  0  0
   -2.2725    2.5214    1.7472 H   0  0  0  0  0  0  0  0  0  0  0  0
   -3.1870    0.5978    0.4532 H   0  0  0  0  0  0  0  0  0  0  0  0
   -1.3884   -1.3094    1.2330 H   0  0  0  0  0  0  0  0  0  0  0  0
   -3.0466   -1.4387   -0.6151 H   0  0  0  0  0  0  0  0  0  0  0  0
   -2.0074   -0.4435   -1.6493 H   0  0  0  0  0  0  0  0  0  0  0  0
   -2.0307   -3.0707   -1.4541 H   0  0  0  0  0  0  0  0  0  0  0  0
  1  2  2  0
  2  3  1  0
  3  4  1  0
  4  5  1  0
  2  6  1  0
  6  7  1  0
  7  8  1  0
  8  9  1  0
  9 10  1  0
 10 11  1  0
 11 12  1  0
 12 13  1  0
 11  6  1  0
 10  8  1  0
  3 14  1  0
  3 15  1  0
  4 16  1  0
  5 17  1  0
  7 18  1  0
  7 19  1  0
  8 20  1  6
  9 21  1  0
  9 22  1  0
 10 23  1  6
 11 24  1  1
 12 25  1  0
 12 26  1  0
 13 27  1  0
M  END
$$$$

     RDKit          3D

 27 28  0  0  0  0  0  0  0  0999 V2000
    1.6398    1.8286   -0.5551 O   0  0  0  0  0  0  0  0  0  0  0  0
    1.2399    0.7128   -0.1402 C   0  0  0  0  0  0  0  0  0  0  0  0
    2.2644   -0.2685    0.2988 C   0  0  0  0  0  0  0  0  0  0  0  0
    3.5833    0.3071    0.1447 N   0  0  0  0  0  0  0  0  0  0  0  0
    4.5278   -0.5796    0.5424 O   0  0  0  0  0  0  0  0  0  0  0  0
   -0.1439    0.4437   -0.1094 N   0  0  0  0  0  0  0  0  0  0  0  0
   -1.1857    1.3572   -0.5229 C   0  0  0  0  0  0  0  0  0  0  0  0
   -2.4224    0.9686    0.2553 C   0  0  2  0  0  0  0  0  0  0  0  0
   -2.2335    0.9088    1.7339 C   0  0  0  0  0  0  0  0  0  0  0  0
   -2.0782   -0.3362    0.9672 C   0  0  2  0  0  0  0  0  0  0  0  0
   -0.8037   -0.7489    0.3216 C   0  0  1  0  0  0  0  0  0  0  0  0
   -1.1679   -1.5411   -0.9400 C   0  0  0  0  0  0  0  0  0  0  0  0
   -0.0606   -1.8753   -1.6820 O   0  0  0  0  0  0  0  0  0  0  0  0
    2.1392   -0.4728    1.4022 H   0  0  0  0  0  0  0  0  0  0  0  0
    2.1664   -1.2496   -0.1951 H   0  0  0  0  0  0  0  0  0  0  0  0
    3.7821    0.6631   -0.7979 H   0  0  0  0  0  0  0  0  0  0  0  0
    5.4294   -0.2318    0.4195 H   0  0  0  0  0  0  0  0  0  0  0  0
   -0.8824    2.3730   -0.1559 H   0  0  0  0  0  0  0  0  0  0  0  0
   -1.3523    1.3549   -1.6101 H   0  0  0  0  0  0  0  0  0  0  0  0
   -3.4076    0.9990   -0.2079 H   0  0  0  0  0  0  0  0  0  0  0  0
   -3.1595    1.0100    2.3229 H   0  0  0  0  0  0  0  0  0  0  0  0
   -1.3671    1.4445    2.1635 H   0  0  0  0  0  0  0  0  0  0  0  0
   -2.8811   -1.1147    1.0163 H   0  0  0  0  0  0  0  0  0  0  0  0
   -0.1711   -1.4195    0.9311 H   0  0  0  0  0  0  0  0  0  0  0  0
   -1.8572   -0.8934   -1.5485 H   0  0  0  0  0  0  0  0  0  0  0  0
   -1.7609   -2.4153   -0.6247 H   0  0  0  0  0  0  0  0  0  0  0  0
    0.1627   -1.2248   -2.4005 H   0  0  0  0  0  0  0  0  0  0  0  0
  1  2  2  0
  2  3  1  0
  3  4  1  0
  4  5  1  0
  2  6  1  0
  6  7  1  0
  7  8  1  0
  8  9  1  0
  9 10  1  0
 10 11  1  0
 11 12  1  0
 12 13  1  0
 11  6  1  0
 10  8  1  0
  3 14  1  0
  3 15  1  0
  4 16  1  0
  5 17  1  0
  7 18  1  0
  7 19  1  0
  8 20  1  1
  9 21  1  0
  9 22  1  0
 10 23  1  1
 11 24  1  1
 12 25  1  0
 12 26  1  0
 13 27  1  0
M  END
$$$$

     RDKit          3D

 27 28  0  0  0  0  0  0  0  0999 V2000
    1.9349    0.0981   -1.7288 O   0  0  0  0  0  0  0  0  0  0  0  0
    1.3826    0.1243   -0.6037 C   0  0  0  0  0  0  0  0  0  0  0  0
    2.2619    0.2345    0.5937 C   0  0  0  0  0  0  0  0  0  0  0  0
    3.6467    0.2937    0.2241 N   0  0  0  0  0  0  0  0  0  0  0  0
    4.4191    0.3922    1.3098 O   0  0  0  0  0  0  0  0  0  0  0  0
   -0.0284    0.0513   -0.4800 N   0  0  0  0  0  0  0  0  0  0  0  0
   -0.9504   -0.0563   -1.5847 C   0  0  0  0  0  0  0  0  0  0  0  0
   -2.3146    0.2658   -0.9935 C   0  0  2  0  0  0  0  0  0  0  0  0
   -2.4302    1.6515   -0.4645 C   0  0  0  0  0  0  0  0  0  0  0  0
   -2.1549    0.5360    0.4392 C   0  0  2  0  0  0  0  0  0  0  0  0
   -0.7535    0.0735    0.7585 C   0  0  1  0  0  0  0  0  0  0  0  0
   -0.9112   -1.3406    1.3371 C   0  0  0  0  0  0  0  0  0  0  0  0
   -1.6121   -2.1124    0.4016 O   0  0  0  0  0  0  0  0  0  0  0  0
    1.9975    1.2045    1.0802 H   0  0  0  0  0  0  0  0  0  0  0  0
    2.1081   -0.6153    1.2785 H   0  0  0  0  0  0  0  0  0  0  0  0
    3.9432   -0.5453   -0.3158 H   0  0  0  0  0  0  0  0  0  0  0  0
    5.2644    0.8714    1.1031 H   0  0  0  0  0  0  0  0  0  0  0  0
   -0.9306   -1.0521   -2.0661 H   0  0  0  0  0  0  0  0  0  0  0  0
   -0.7642    0.7133   -2.3709 H   0  0  0  0  0  0  0  0  0  0  0  0
   -3.1883   -0.3052   -1.3209 H   0  0  0  0  0  0  0  0  0  0  0  0
   -3.4340    2.0837   -0.4432 H   0  0  0  0  0  0  0  0  0  0  0  0
   -1.6448    2.4009   -0.7450 H   0  0  0  0  0  0  0  0  0  0  0  0
   -2.9048    0.2369    1.1957 H   0  0  0  0  0  0  0  0  0  0  0  0
   -0.2947    0.6913    1.5443 H   0  0  0  0  0  0  0  0  0  0  0  0
    0.0404   -1.7804    1.6287 H   0  0  0  0  0  0  0  0  0  0  0  0
   -1.5615   -1.2102    2.2341 H   0  0  0  0  0  0  0  0  0  0  0  0
   -1.1207   -2.9053    0.1230 H   0  0  0  0  0  0  0  0  0  0  0  0
  1  2  2  0
  2  3  1  0
  3  4  1  0
  4  5  1  0
  2  6  1  0
  6  7  1  0
  7  8  1  0
  8  9  1  0
  9 10  1  0
 10 11  1  0
 11 12  1  0
 12 13  1  0
 11  6  1  0
 10  8  1  0
  3 14  1  0
  3 15  1  0
  4 16  1  0
  5 17  1  0
  7 18  1  0
  7 19  1  0
  8 20  1  1
  9 21  1  0
  9 22  1  0
 10 23  1  1
 11 24  1  1
 12 25  1  0
 12 26  1  0
 13 27  1  0
M  END
$$$$

     RDKit          3D

 27 28  0  0  0  0  0  0  0  0999 V2000
    1.4939   -0.0662   -2.2788 O   0  0  0  0  0  0  0  0  0  0  0  0
    1.2205    0.0763   -1.0615 C   0  0  0  0  0  0  0  0  0  0  0  0
    2.3153    0.4627   -0.1434 C   0  0  0  0  0  0  0  0  0  0  0  0
    3.5737    0.6155   -0.8508 N   0  0  0  0  0  0  0  0  0  0  0  0
    4.5798    0.9641   -0.0461 O   0  0  0  0  0  0  0  0  0  0  0  0
   -0.0875   -0.1283   -0.6030 N   0  0  0  0  0  0  0  0  0  0  0  0
   -1.2505   -0.5045   -1.3712 C   0  0  0  0  0  0  0  0  0  0  0  0
   -2.4214    0.0402   -0.6032 C   0  0  2  0  0  0  0  0  0  0  0  0
   -2.3181    1.5347   -0.3545 C   0  0  0  0  0  0  0  0  0  0  0  0
   -1.8960    0.5919    0.6946 C   0  0  2  0  0  0  0  0  0  0  0  0
   -0.5288    0.0025    0.7617 C   0  0  1  0  0  0  0  0  0  0  0  0
   -0.6865   -1.4001    1.3673 C   0  0  0  0  0  0  0  0  0  0  0  0
   -1.6193   -2.1363    0.6531 O   0  0  0  0  0  0  0  0  0  0  0  0
    2.4560   -0.3203    0.6337 H   0  0  0  0  0  0  0  0  0  0  0  0
    2.0931    1.4384    0.3299 H   0  0  0  0  0  0  0  0  0  0  0  0
    3.8360   -0.2243   -1.3878 H   0  0  0  0  0  0  0  0  0  0  0  0
    4.5749    1.9476    0.0536 H   0  0  0  0  0  0  0  0  0  0  0  0
   -1.1948    0.0976   -2.3255 H   0  0  0  0  0  0  0  0  0  0  0  0
   -1.3104   -1.5714   -1.5939 H   0  0  0  0  0  0  0  0  0  0  0  0
   -3.3929   -0.4473   -0.6177 H   0  0  0  0  0  0  0  0  0  0  0  0
   -1.5970    2.1322   -0.9407 H   0  0  0  0  0  0  0  0  0  0  0  0
   -3.2951    2.0168   -0.2159 H   0  0  0  0  0  0  0  0  0  0  0  0
   -2.4791    0.5444    1.6140 H   0  0  0  0  0  0  0  0  0  0  0  0
    0.1787    0.5374    1.4084 H   0  0  0  0  0  0  0  0  0  0  0  0
    0.2805   -1.9057    1.4849 H   0  0  0  0  0  0  0  0  0  0  0  0
   -1.1539   -1.2126    2.3775 H   0  0  0  0  0  0  0  0  0  0  0  0
   -1.3709   -3.0854    0.5334 H   0  0  0  0  0  0  0  0  0  0  0  0
  1  2  2  0
  2  3  1  0
  3  4  1  0
  4  5  1  0
  2  6  1  0
  6  7  1  0
  7  8  1  0
  8  9  1  0
  9 10  1  0
 10 11  1  0
 11 12  1  0
 12 13  1  0
 11  6  1  0
 10  8  1  0
  3 14  1  0
  3 15  1  0
  4 16  1  0
  5 17  1  0
  7 18  1  0
  7 19  1  0
  8 20  1  1
  9 21  1  0
  9 22  1  0
 10 23  1  1
 11 24  1  1
 12 25  1  0
 12 26  1  0
 13 27  1  0
M  END
$$$$
