
     RDKit          3D

 24 25  0  0  0  0  0  0  0  0999 V2000
    0.1023    1.8960   -0.7613 O   0  0  0  0  0  0  0  0  0  0  0  0
   -0.6136    0.6736   -0.8484 C   0  0  2  0  0  0  0  0  0  0  0  0
   -1.9492    0.7830   -0.2214 C   0  0  0  0  0  0  0  0  0  0  0  0
   -2.1458    0.1260    1.0058 N   0  0  0  0  0  0  0  0  0  0  0  0
   -1.5688   -1.1486    1.1814 C   0  0  0  0  0  0  0  0  0  0  0  0
   -0.1090   -1.0598    0.8982 C   0  0  0  0  0  0  0  0  0  0  0  0
    0.2350   -0.4711   -0.4518 C   0  0  1  0  0  0  0  0  0  0  0  0
    0.0742   -1.5291   -1.3696 O   0  0  0  0  0  0  0  0  0  0  0  0
    1.6746   -0.1339   -0.3833 C   0  0  0  0  0  0  0  0  0  0  0  0
    2.2524    0.7969    0.4095 N   0  0  0  0  0  0  0  0  0  0  0  0
    3.5772    0.8230    0.2025 C   0  0  0  0  0  0  0  0  0  0  0  0
    3.8024   -0.1110   -0.7342 N   0  0  0  0  0  0  0  0  0  0  0  0
    2.6442   -0.6645   -1.0606 O   0  0  0  0  0  0  0  0  0  0  0  0
   -0.4853    2.5436   -1.2507 H   0  0  0  0  0  0  0  0  0  0  0  0
   -0.7927    0.5686   -1.9616 H   0  0  0  0  0  0  0  0  0  0  0  0
   -2.7706    0.4406   -0.9174 H   0  0  0  0  0  0  0  0  0  0  0  0
   -2.1716    1.8789   -0.0695 H   0  0  0  0  0  0  0  0  0  0  0  0
   -2.2676    0.7090    1.8483 H   0  0  0  0  0  0  0  0  0  0  0  0
   -2.0438   -1.9484    0.6068 H   0  0  0  0  0  0  0  0  0  0  0  0
   -1.6725   -1.4250    2.2606 H   0  0  0  0  0  0  0  0  0  0  0  0
    0.3159   -2.0966    0.9075 H   0  0  0  0  0  0  0  0  0  0  0  0
    0.4652   -0.4915    1.6522 H   0  0  0  0  0  0  0  0  0  0  0  0
   -0.8854   -1.5855   -1.5970 H   0  0  0  0  0  0  0  0  0  0  0  0
    4.3327    1.4256    0.6538 H   0  0  0  0  0  0  0  0  0  0  0  0
  1  2  1  0
  2  3  1  0
  3  4  1  0
  4  5  1  0
  5  6  1  0
  6  7  1  0
  7  8  1  6
  7  9  1  0
  9 10  2  0
 10 11  1  0
 11 12  2  0
 12 13  1  0
  7  2  1  0
 13  9  1  0
  1 14  1  0
  2 15  1  6
  3 16  1  0
  3 17  1  0
  4 18  1  0
  5 19  1  0
  5 20  1  0
  6 21  1  0
  6 22  1  0
  8 23  1  0
 11 24  1  0
M  END
$$$$

     RDKit          3D

 24 25  0  0  0  0  0  0  0  0999 V2000
   -0.7631    2.3282   -0.2864 O   0  0  0  0  0  0  0  0  0  0  0  0
   -0.9711    0.9508   -0.2340 C   0  0  2  0  0  0  0  0  0  0  0  0
   -1.5880    0.5260    1.0984 C   0  0  0  0  0  0  0  0  0  0  0  0
   -2.1102   -0.8113    1.0099 N   0  0  0  0  0  0  0  0  0  0  0  0
   -1.5838   -1.5628   -0.1018 C   0  0  0  0  0  0  0  0  0  0  0  0
   -0.1139   -1.3234   -0.2013 C   0  0  0  0  0  0  0  0  0  0  0  0
    0.1575    0.1016   -0.6900 C   0  0  1  0  0  0  0  0  0  0  0  0
    0.1645    0.0872   -2.0890 O   0  0  0  0  0  0  0  0  0  0  0  0
    1.4955    0.4897   -0.1691 C   0  0  0  0  0  0  0  0  0  0  0  0
    2.5466   -0.3808   -0.1984 N   0  0  0  0  0  0  0  0  0  0  0  0
    3.6131    0.1989    0.3077 C   0  0  0  0  0  0  0  0  0  0  0  0
    3.2390    1.4645    0.6722 N   0  0  0  0  0  0  0  0  0  0  0  0
    1.9618    1.5716    0.3538 O   0  0  0  0  0  0  0  0  0  0  0  0
   -0.0641    2.6773    0.3012 H   0  0  0  0  0  0  0  0  0  0  0  0
   -1.8057    0.7858   -0.9659 H   0  0  0  0  0  0  0  0  0  0  0  0
   -2.5053    1.1880    1.1887 H   0  0  0  0  0  0  0  0  0  0  0  0
   -0.9504    0.6690    1.9726 H   0  0  0  0  0  0  0  0  0  0  0  0
   -3.1135   -0.9064    1.1859 H   0  0  0  0  0  0  0  0  0  0  0  0
   -1.7061   -2.6438    0.1126 H   0  0  0  0  0  0  0  0  0  0  0  0
   -2.0809   -1.2837   -1.0648 H   0  0  0  0  0  0  0  0  0  0  0  0
    0.3750   -1.4501    0.7677 H   0  0  0  0  0  0  0  0  0  0  0  0
    0.2826   -2.0022   -0.9797 H   0  0  0  0  0  0  0  0  0  0  0  0
    0.8871   -0.4877   -2.4232 H   0  0  0  0  0  0  0  0  0  0  0  0
    4.6333   -0.1864    0.4330 H   0  0  0  0  0  0  0  0  0  0  0  0
  1  2  1  0
  2  3  1  0
  3  4  1  0
  4  5  1  0
  5  6  1  0
  6  7  1  0
  7  8  1  6
  7  9  1  0
  9 10  2  0
 10 11  1  0
 11 12  2  0
 12 13  1  0
  7  2  1  0
 13  9  1  0
  1 14  1  0
  2 15  1  6
  3 16  1  0
  3 17  1  0
  4 18  1  0
  5 19  1  0
  5 20  1  0
  6 21  1  0
  6 22  1  0
  8 23  1  0
 11 24  1  0
M  END
$$$$

     RDKit          3D

 24 25  0  0  0  0  0  0  0  0999 V2000
    0.0263   -1.4475   -1.8415 O   0  0  0  0  0  0  0  0  0  0  0  0
   -0.7226   -1.0111   -0.7395 C   0  0  2  0  0  0  0  0  0  0  0  0
   -1.4826    0.2271   -1.1534 C   0  0  0  0  0  0  0  0  0  0  0  0
   -2.2542    0.6927    0.0038 N   0  0  0  0  0  0  0  0  0  0  0  0
   -1.2426    1.0831    0.9948 C   0  0  0  0  0  0  0  0  0  0  0  0
   -0.5693   -0.1496    1.5515 C   0  0  0  0  0  0  0  0  0  0  0  0
    0.1663   -0.8204    0.4200 C   0  0  1  0  0  0  0  0  0  0  0  0
    0.6302   -2.0806    0.8140 O   0  0  0  0  0  0  0  0  0  0  0  0
    1.3480    0.0033    0.0805 C   0  0  0  0  0  0  0  0  0  0  0  0
    2.1730   -0.0549   -0.9924 N   0  0  0  0  0  0  0  0  0  0  0  0
    3.1172    0.8932   -0.8345 C   0  0  0  0  0  0  0  0  0  0  0  0
    2.8589    1.5038    0.3232 N   0  0  0  0  0  0  0  0  0  0  0  0
    1.8032    0.9732    0.8624 O   0  0  0  0  0  0  0  0  0  0  0  0
   -0.3247   -2.3005   -2.2256 H   0  0  0  0  0  0  0  0  0  0  0  0
   -1.4324   -1.8451   -0.4875 H   0  0  0  0  0  0  0  0  0  0  0  0
   -0.7663    0.9796   -1.5126 H   0  0  0  0  0  0  0  0  0  0  0  0
   -2.2412   -0.0962   -1.9057 H   0  0  0  0  0  0  0  0  0  0  0  0
   -2.7593    1.5726   -0.2122 H   0  0  0  0  0  0  0  0  0  0  0  0
   -1.7169    1.7295    1.7603 H   0  0  0  0  0  0  0  0  0  0  0  0
   -0.4889    1.6931    0.4490 H   0  0  0  0  0  0  0  0  0  0  0  0
   -1.2230   -0.8077    2.0970 H   0  0  0  0  0  0  0  0  0  0  0  0
    0.2287    0.2251    2.2676 H   0  0  0  0  0  0  0  0  0  0  0  0
    0.9511   -2.0936    1.7503 H   0  0  0  0  0  0  0  0  0  0  0  0
    3.9212    1.1310   -1.4697 H   0  0  0  0  0  0  0  0  0  0  0  0
  1  2  1  0
  2  3  1  0
  3  4  1  0
  4  5  1  0
  5  6  1  0
  6  7  1  0
  7  8  1  1
  7  9  1  0
  9 10  2  0
 10 11  1  0
 11 12  2  0
 12 13  1  0
  7  2  1  0
 13  9  1  0
  1 14  1  0
  2 15  1  1
  3 16  1  0
  3 17  1  0
  4 18  1  0
  5 19  1  0
  5 20  1  0
  6 21  1  0
  6 22  1  0
  8 23  1  0
 11 24  1  0
M  END
$$$$

     RDKit          3D

 24 25  0  0  0  0  0  0  0  0999 V2000
   -0.4713    1.6010    1.2874 O   0  0  0  0  0  0  0  0  0  0  0  0
   -0.7205    1.2131   -0.0289 C   0  0  2  0  0  0  0  0  0  0  0  0
   -2.1481    0.7103   -0.0934 C   0  0  0  0  0  0  0  0  0  0  0  0
   -2.2158   -0.5644   -0.7615 N   0  0  0  0  0  0  0  0  0  0  0  0
   -1.4583   -1.6016   -0.1119 C   0  0  0  0  0  0  0  0  0  0  0  0
   -0.0788   -1.1694    0.3159 C   0  0  0  0  0  0  0  0  0  0  0  0
    0.2324    0.1345   -0.3435 C   0  0  1  0  0  0  0  0  0  0  0  0
    0.1769   -0.1626   -1.7723 O   0  0  0  0  0  0  0  0  0  0  0  0
    1.6513    0.5203   -0.1467 C   0  0  0  0  0  0  0  0  0  0  0  0
    2.6724   -0.2537    0.1750 N   0  0  0  0  0  0  0  0  0  0  0  0
    3.7842    0.4540    0.2525 C   0  0  0  0  0  0  0  0  0  0  0  0
    3.3967    1.7236   -0.0027 N   0  0  0  0  0  0  0  0  0  0  0  0
    2.1193    1.7567   -0.2294 O   0  0  0  0  0  0  0  0  0  0  0  0
   -0.5785    0.8375    1.8955 H   0  0  0  0  0  0  0  0  0  0  0  0
   -0.5531    2.0824   -0.6955 H   0  0  0  0  0  0  0  0  0  0  0  0
   -2.5812    0.5972    0.9097 H   0  0  0  0  0  0  0  0  0  0  0  0
   -2.8080    1.4033   -0.6609 H   0  0  0  0  0  0  0  0  0  0  0  0
   -3.2123   -0.8693   -0.7667 H   0  0  0  0  0  0  0  0  0  0  0  0
   -1.9970   -2.0359    0.7670 H   0  0  0  0  0  0  0  0  0  0  0  0
   -1.3305   -2.4161   -0.8702 H   0  0  0  0  0  0  0  0  0  0  0  0
    0.0395   -1.0727    1.4045 H   0  0  0  0  0  0  0  0  0  0  0  0
    0.6927   -1.9018   -0.0231 H   0  0  0  0  0  0  0  0  0  0  0  0
    0.6344   -1.0319   -1.8967 H   0  0  0  0  0  0  0  0  0  0  0  0
    4.7537    0.0454    0.4315 H   0  0  0  0  0  0  0  0  0  0  0  0
  1  2  1  0
  2  3  1  0
  3  4  1  0
  4  5  1  0
  5  6  1  0
  6  7  1  0
  7  8  1  6
  7  9  1  0
  9 10  2  0
 10 11  1  0
 11 12  2  0
 12 13  1  0
  7  2  1  0
 13  9  1  0
  1 14  1  0
  2 15  1  6
  3 16  1  0
  3 17  1  0
  4 18  1  0
  5 19  1  0
  5 20  1  0
  6 21  1  0
  6 22  1  0
  8 23  1  0
 11 24  1  0
M  END
$$$$

     RDKit          3D

 24 25  0  0  0  0  0  0  0  0999 V2000
    0.1284    1.9304    0.7851 O   0  0  0  0  0  0  0  0  0  0  0  0
   -0.4754    1.0816   -0.1752 C   0  0  2  0  0  0  0  0  0  0  0  0
   -1.9386    1.0068    0.1023 C   0  0  0  0  0  0  0  0  0  0  0  0
   -2.5559   -0.2516    0.1030 N   0  0  0  0  0  0  0  0  0  0  0  0
   -1.7616   -1.4007    0.2871 C   0  0  0  0  0  0  0  0  0  0  0  0
   -0.4009   -1.1075    0.9002 C   0  0  0  0  0  0  0  0  0  0  0  0
    0.2501   -0.2060   -0.1584 C   0  0  1  0  0  0  0  0  0  0  0  0
   -0.0451   -0.8368   -1.4089 O   0  0  0  0  0  0  0  0  0  0  0  0
    1.7023   -0.1363    0.0001 C   0  0  0  0  0  0  0  0  0  0  0  0
    2.6406   -0.1202   -0.9815 N   0  0  0  0  0  0  0  0  0  0  0  0
    3.8811   -0.0633   -0.4507 C   0  0  0  0  0  0  0  0  0  0  0  0
    3.6544   -0.0442    0.8793 N   0  0  0  0  0  0  0  0  0  0  0  0
    2.3929   -0.0836    1.1286 O   0  0  0  0  0  0  0  0  0  0  0  0
   -0.4772    2.7289    0.8913 H   0  0  0  0  0  0  0  0  0  0  0  0
   -0.2460    1.5966   -1.1483 H   0  0  0  0  0  0  0  0  0  0  0  0
   -2.2137    1.5594    1.0237 H   0  0  0  0  0  0  0  0  0  0  0  0
   -2.4395    1.6003   -0.7381 H   0  0  0  0  0  0  0  0  0  0  0  0
   -3.3711   -0.2798    0.7838 H   0  0  0  0  0  0  0  0  0  0  0  0
   -2.2357   -2.2103    0.8931 H   0  0  0  0  0  0  0  0  0  0  0  0
   -1.5361   -1.8236   -0.7394 H   0  0  0  0  0  0  0  0  0  0  0  0
   -0.5379   -0.5433    1.8484 H   0  0  0  0  0  0  0  0  0  0  0  0
    0.1749   -2.0209    1.0454 H   0  0  0  0  0  0  0  0  0  0  0  0
    0.5658   -0.3494   -2.0534 H   0  0  0  0  0  0  0  0  0  0  0  0
    4.8441   -0.0265   -0.9298 H   0  0  0  0  0  0  0  0  0  0  0  0
  1  2  1  0
  2  3  1  0
  3  4  1  0
  4  5  1  0
  5  6  1  0
  6  7  1  0
  7  8  1  6
  7  9  1  0
  9 10  2  0
 10 11  1  0
 11 12  2  0
 12 13  1  0
  7  2  1  0
 13  9  1  0
  1 14  1  0
  2 15  1  6
  3 16  1  0
  3 17  1  0
  4 18  1  0
  5 19  1  0
  5 20  1  0
  6 21  1  0
  6 22  1  0
  8 23  1  0
 11 24  1  0
M  END
$$$$

     RDKit          3D

 24 25  0  0  0  0  0  0  0  0999 V2000
   -0.0921   -1.2765   -1.7231 O   0  0  0  0  0  0  0  0  0  0  0  0
   -0.8776   -1.0067   -0.5951 C   0  0  2  0  0  0  0  0  0  0  0  0
   -1.9395   -0.0020   -0.9678 C   0  0  0  0  0  0  0  0  0  0  0  0
   -1.6017    1.3457   -0.6882 N   0  0  0  0  0  0  0  0  0  0  0  0
   -1.1667    1.6215    0.6318 C   0  0  0  0  0  0  0  0  0  0  0  0
   -0.4834    0.5298    1.3612 C   0  0  0  0  0  0  0  0  0  0  0  0
    0.0136   -0.6008    0.5184 C   0  0  1  0  0  0  0  0  0  0  0  0
    0.1195   -1.7219    1.3822 O   0  0  0  0  0  0  0  0  0  0  0  0
    1.4197   -0.3703    0.0570 C   0  0  0  0  0  0  0  0  0  0  0  0
    2.2244    0.6561    0.3308 N   0  0  0  0  0  0  0  0  0  0  0  0
    3.3736    0.3911   -0.3258 C   0  0  0  0  0  0  0  0  0  0  0  0
    3.1996   -0.7935   -0.9688 N   0  0  0  0  0  0  0  0  0  0  0  0
    2.0276   -1.2066   -0.7164 O   0  0  0  0  0  0  0  0  0  0  0  0
    0.1917   -2.2271   -1.7593 H   0  0  0  0  0  0  0  0  0  0  0  0
   -1.4143   -1.9834   -0.3910 H   0  0  0  0  0  0  0  0  0  0  0  0
   -2.1129   -0.0951   -2.0573 H   0  0  0  0  0  0  0  0  0  0  0  0
   -2.9169   -0.2543   -0.4923 H   0  0  0  0  0  0  0  0  0  0  0  0
   -1.1107    1.8452   -1.4502 H   0  0  0  0  0  0  0  0  0  0  0  0
   -0.5730    2.5692    0.6009 H   0  0  0  0  0  0  0  0  0  0  0  0
   -2.0896    1.9051    1.2307 H   0  0  0  0  0  0  0  0  0  0  0  0
    0.4409    0.9697    1.8407 H   0  0  0  0  0  0  0  0  0  0  0  0
   -1.0820    0.1297    2.1929 H   0  0  0  0  0  0  0  0  0  0  0  0
    0.1983   -1.4562    2.3222 H   0  0  0  0  0  0  0  0  0  0  0  0
    4.2513    1.0312   -0.3333 H   0  0  0  0  0  0  0  0  0  0  0  0
  1  2  1  0
  2  3  1  0
  3  4  1  0
  4  5  1  0
  5  6  1  0
  6  7  1  0
  7  8  1  1
  7  9  1  0
  9 10  2  0
 10 11  1  0
 11 12  2  0
 12 13  1  0
  7  2  1  0
 13  9  1  0
  1 14  1  0
  2 15  1  1
  3 16  1  0
  3 17  1  0
  4 18  1  0
  5 19  1  0
  5 20  1  0
  6 21  1  0
  6 22  1  0
  8 23  1  0
 11 24  1  0
M  END
$$$$

     RDKit          3D

 24 25  0  0  0  0  0  0  0  0999 V2000
   -1.0285   -1.4707   -1.1381 O   0  0  0  0  0  0  0  0  0  0  0  0
   -0.5625   -1.2225    0.1513 C   0  0  2  0  0  0  0  0  0  0  0  0
   -1.7533   -0.7818    1.0180 C   0  0  0  0  0  0  0  0  0  0  0  0
   -2.3560    0.4180    0.5462 N   0  0  0  0  0  0  0  0  0  0  0  0
   -1.4759    1.5114    0.3099 C   0  0  0  0  0  0  0  0  0  0  0  0
   -0.3358    1.0540   -0.5971 C   0  0  0  0  0  0  0  0  0  0  0  0
    0.3633   -0.0293    0.2064 C   0  0  1  0  0  0  0  0  0  0  0  0
    0.4301    0.3480    1.5606 O   0  0  0  0  0  0  0  0  0  0  0  0
    1.7115   -0.2522   -0.2915 C   0  0  0  0  0  0  0  0  0  0  0  0
    2.4710    0.7402   -0.7931 N   0  0  0  0  0  0  0  0  0  0  0  0
    3.6504    0.2407   -1.1690 C   0  0  0  0  0  0  0  0  0  0  0  0
    3.6139   -1.0698   -0.8946 N   0  0  0  0  0  0  0  0  0  0  0  0
    2.4515   -1.3237   -0.3766 O   0  0  0  0  0  0  0  0  0  0  0  0
   -1.9645   -1.1716   -1.2754 H   0  0  0  0  0  0  0  0  0  0  0  0
   -0.1578   -2.1300    0.5934 H   0  0  0  0  0  0  0  0  0  0  0  0
   -2.5066   -1.5596    1.1160 H   0  0  0  0  0  0  0  0  0  0  0  0
   -1.2961   -0.5594    2.0260 H   0  0  0  0  0  0  0  0  0  0  0  0
   -3.1024    0.2914   -0.1550 H   0  0  0  0  0  0  0  0  0  0  0  0
   -0.9864    1.8161    1.2617 H   0  0  0  0  0  0  0  0  0  0  0  0
   -1.9853    2.3333   -0.1786 H   0  0  0  0  0  0  0  0  0  0  0  0
   -0.7463    0.5795   -1.5063 H   0  0  0  0  0  0  0  0  0  0  0  0
    0.3466    1.8514   -0.8649 H   0  0  0  0  0  0  0  0  0  0  0  0
    0.7698   -0.4421    2.0566 H   0  0  0  0  0  0  0  0  0  0  0  0
    4.4492    0.8286   -1.6058 H   0  0  0  0  0  0  0  0  0  0  0  0
  1  2  1  0
  2  3  1  0
  3  4  1  0
  4  5  1  0
  5  6  1  0
  6  7  1  0
  7  8  1  1
  7  9  1  0
  9 10  2  0
 10 11  1  0
 11 12  2  0
 12 13  1  0
  7  2  1  0
 13  9  1  0
  1 14  1  0
  2 15  1  1
  3 16  1  0
  3 17  1  0
  4 18  1  0
  5 19  1  0
  5 20  1  0
  6 21  1  0
  6 22  1  0
  8 23  1  0
 11 24  1  0
M  END
$$$$

     RDKit          3D

 24 25  0  0  0  0  0  0  0  0999 V2000
   -0.5069    1.8305    0.7044 O   0  0  0  0  0  0  0  0  0  0  0  0
   -0.2085    1.1586   -0.5025 C   0  0  2  0  0  0  0  0  0  0  0  0
   -1.5631    0.9974   -1.2065 C   0  0  0  0  0  0  0  0  0  0  0  0
   -2.3006   -0.0210   -0.5685 N   0  0  0  0  0  0  0  0  0  0  0  0
   -2.0178   -0.3159    0.7834 C   0  0  0  0  0  0  0  0  0  0  0  0
   -0.5525   -0.6303    1.0649 C   0  0  0  0  0  0  0  0  0  0  0  0
    0.1976   -0.2777   -0.1763 C   0  0  1  0  0  0  0  0  0  0  0  0
   -0.2754   -1.1371   -1.1952 O   0  0  0  0  0  0  0  0  0  0  0  0
    1.6556   -0.3994   -0.0394 C   0  0  0  0  0  0  0  0  0  0  0  0
    2.4070   -0.7301    1.0249 N   0  0  0  0  0  0  0  0  0  0  0  0
    3.6788   -0.6914    0.6023 C   0  0  0  0  0  0  0  0  0  0  0  0
    3.6926   -0.3428   -0.6981 N   0  0  0  0  0  0  0  0  0  0  0  0
    2.4712   -0.1748   -1.0546 O   0  0  0  0  0  0  0  0  0  0  0  0
    0.1599    2.4961    0.9377 H   0  0  0  0  0  0  0  0  0  0  0  0
    0.5154    1.6914   -1.1115 H   0  0  0  0  0  0  0  0  0  0  0  0
   -2.0626    1.9799   -1.2787 H   0  0  0  0  0  0  0  0  0  0  0  0
   -1.3014    0.6409   -2.2425 H   0  0  0  0  0  0  0  0  0  0  0  0
   -2.6476   -0.7940   -1.1561 H   0  0  0  0  0  0  0  0  0  0  0  0
   -2.5810   -1.2505    1.0565 H   0  0  0  0  0  0  0  0  0  0  0  0
   -2.4097    0.4785    1.4371 H   0  0  0  0  0  0  0  0  0  0  0  0
   -0.4014   -1.6403    1.4366 H   0  0  0  0  0  0  0  0  0  0  0  0
   -0.2338    0.0894    1.8732 H   0  0  0  0  0  0  0  0  0  0  0  0
   -0.3177   -2.0651   -0.8283 H   0  0  0  0  0  0  0  0  0  0  0  0
    4.6020   -0.8924    1.1371 H   0  0  0  0  0  0  0  0  0  0  0  0
  1  2  1  0
  2  3  1  0
  3  4  1  0
  4  5  1  0
  5  6  1  0
  6  7  1  0
  7  8  1  6
  7  9  1  0
  9 10  2  0
 10 11  1  0
 11 12  2  0
 12 13  1  0
  7  2  1  0
 13  9  1  0
  1 14  1  0
  2 15  1  6
  3 16  1  0
  3 17  1  0
  4 18  1  0
  5 19  1  0
  5 20  1  0
  6 21  1  0
  6 22  1  0
  8 23  1  0
 11 24  1  0
M  END
$$$$
