
     RDKit          3D

 23 24  0  0  0  0  0  0  0  0999 V2000
   -3.2785   -0.8707   -2.1668 O   0  0  0  0  0  0  0  0  0  0  0  0
   -2.6270   -0.4668   -1.1743 C   0  0  0  0  0  0  0  0  0  0  0  0
   -1.1336   -0.4262   -1.0394 C   0  0  0  0  0  0  0  0  0  0  0  0
   -0.8853   -0.3251    0.4580 C   0  0  1  0  0  0  0  0  0  0  0  0
    0.2186    0.5508    0.7014 N   0  0  0  0  0  0  0  0  0  0  0  0
    1.5280    0.2780    0.1723 C   0  0  0  0  0  0  0  0  0  0  0  0
    2.6470    0.8037    0.6412 C   0  0  0  0  0  0  0  0  0  0  0  0
    3.7908    0.3148   -0.1252 C   0  0  0  0  0  0  0  0  0  0  0  0
    5.0179    0.6081    0.0453 O   0  0  0  0  0  0  0  0  0  0  0  0
    3.2636   -0.5376   -1.0801 O   0  0  0  0  0  0  0  0  0  0  0  0
    1.8693   -0.6069   -0.9536 C   0  0  0  0  0  0  0  0  0  0  0  0
   -2.1592    0.2916    0.9868 C   0  0  0  0  0  0  0  0  0  0  0  0
   -3.1855    0.0345    0.0237 N   0  0  0  0  0  0  0  0  0  0  0  0
   -0.6766   -1.3269   -1.4845 H   0  0  0  0  0  0  0  0  0  0  0  0
   -0.8084    0.4991   -1.5386 H   0  0  0  0  0  0  0  0  0  0  0  0
   -0.7464   -1.3345    0.9075 H   0  0  0  0  0  0  0  0  0  0  0  0
    0.0581    1.4099    1.2815 H   0  0  0  0  0  0  0  0  0  0  0  0
    2.6956    1.4942    1.4719 H   0  0  0  0  0  0  0  0  0  0  0  0
    1.4311   -0.2704   -1.9262 H   0  0  0  0  0  0  0  0  0  0  0  0
    1.5982   -1.6613   -0.8005 H   0  0  0  0  0  0  0  0  0  0  0  0
   -2.4060   -0.0581    2.0083 H   0  0  0  0  0  0  0  0  0  0  0  0
   -2.0229    1.4106    1.0254 H   0  0  0  0  0  0  0  0  0  0  0  0
   -4.1887    0.1893    0.1730 H   0  0  0  0  0  0  0  0  0  0  0  0
  1  2  2  0
  2  3  1  0
  3  4  1  0
  4  5  1  0
  5  6  1  0
  6  7  2  0
  7  8  1  0
  8  9  2  0
  8 10  1  0
 10 11  1  0
  4 12  1  0
 12 13  1  0
 13  2  1  0
 11  6  1  0
  3 14  1  0
  3 15  1  0
  4 16  1  1
  5 17  1  0
  7 18  1  0
 11 19  1  0
 11 20  1  0
 12 21  1  0
 12 22  1  0
 13 23  1  0
M  END
$$$$

     RDKit          3D

 23 24  0  0  0  0  0  0  0  0999 V2000
   -3.4246    1.7372    0.8208 O   0  0  0  0  0  0  0  0  0  0  0  0
   -2.7154    0.9193    0.1895 C   0  0  0  0  0  0  0  0  0  0  0  0
   -1.2732    1.0212   -0.1410 C   0  0  0  0  0  0  0  0  0  0  0  0
   -0.8427   -0.3469   -0.5663 C   0  0  1  0  0  0  0  0  0  0  0  0
    0.2793   -0.8602    0.1442 N   0  0  0  0  0  0  0  0  0  0  0  0
    1.5700   -0.2514    0.1808 C   0  0  0  0  0  0  0  0  0  0  0  0
    2.2546    0.1970   -0.8449 C   0  0  0  0  0  0  0  0  0  0  0  0
    3.5005    0.7251   -0.3139 C   0  0  0  0  0  0  0  0  0  0  0  0
    4.4176    1.2468   -1.0310 O   0  0  0  0  0  0  0  0  0  0  0  0
    3.5163    0.5681    1.0562 O   0  0  0  0  0  0  0  0  0  0  0  0
    2.3190   -0.0455    1.4292 C   0  0  0  0  0  0  0  0  0  0  0  0
   -2.0446   -1.2153   -0.3255 C   0  0  0  0  0  0  0  0  0  0  0  0
   -3.1711   -0.3036   -0.3494 N   0  0  0  0  0  0  0  0  0  0  0  0
   -0.6713    1.4470    0.6779 H   0  0  0  0  0  0  0  0  0  0  0  0
   -1.2003    1.7455   -0.9934 H   0  0  0  0  0  0  0  0  0  0  0  0
   -0.6737   -0.3428   -1.6776 H   0  0  0  0  0  0  0  0  0  0  0  0
    0.1773   -1.7434    0.6847 H   0  0  0  0  0  0  0  0  0  0  0  0
    1.9697    0.1895   -1.9097 H   0  0  0  0  0  0  0  0  0  0  0  0
    2.5470   -1.0612    1.8630 H   0  0  0  0  0  0  0  0  0  0  0  0
    1.7362    0.5534    2.1675 H   0  0  0  0  0  0  0  0  0  0  0  0
   -2.1645   -2.0227   -1.0723 H   0  0  0  0  0  0  0  0  0  0  0  0
   -1.9663   -1.6297    0.7162 H   0  0  0  0  0  0  0  0  0  0  0  0
   -4.1398   -0.5274   -0.7049 H   0  0  0  0  0  0  0  0  0  0  0  0
  1  2  2  0
  2  3  1  0
  3  4  1  0
  4  5  1  0
  5  6  1  0
  6  7  2  0
  7  8  1  0
  8  9  2  0
  8 10  1  0
 10 11  1  0
  4 12  1  0
 12 13  1  0
 13  2  1  0
 11  6  1  0
  3 14  1  0
  3 15  1  0
  4 16  1  6
  5 17  1  0
  7 18  1  0
 11 19  1  0
 11 20  1  0
 12 21  1  0
 12 22  1  0
 13 23  1  0
M  END
$$$$

     RDKit          3D

 23 24  0  0  0  0  0  0  0  0999 V2000
    4.3309    0.6930   -0.4782 O   0  0  0  0  0  0  0  0  0  0  0  0
    3.1653    0.3556   -0.2011 C   0  0  0  0  0  0  0  0  0  0  0  0
    2.1411   -0.1765   -1.1265 C   0  0  0  0  0  0  0  0  0  0  0  0
    0.8603    0.2360   -0.4232 C   0  0  1  0  0  0  0  0  0  0  0  0
   -0.2812   -0.5067   -0.9104 N   0  0  0  0  0  0  0  0  0  0  0  0
   -1.5422   -0.2078   -0.3258 C   0  0  0  0  0  0  0  0  0  0  0  0
   -2.1357    0.9877   -0.2877 C   0  0  0  0  0  0  0  0  0  0  0  0
   -3.4099    0.8786    0.3954 C   0  0  0  0  0  0  0  0  0  0  0  0
   -4.2302    1.7907    0.6144 O   0  0  0  0  0  0  0  0  0  0  0  0
   -3.5581   -0.4406    0.7686 O   0  0  0  0  0  0  0  0  0  0  0  0
   -2.4389   -1.1805    0.3565 C   0  0  0  0  0  0  0  0  0  0  0  0
    1.2065   -0.1171    1.0093 C   0  0  0  0  0  0  0  0  0  0  0  0
    2.5776    0.4170    1.0869 N   0  0  0  0  0  0  0  0  0  0  0  0
    2.2123    0.2178   -2.1465 H   0  0  0  0  0  0  0  0  0  0  0  0
    2.2137   -1.2873   -1.0782 H   0  0  0  0  0  0  0  0  0  0  0  0
    0.7294    1.3217   -0.4951 H   0  0  0  0  0  0  0  0  0  0  0  0
   -0.2232   -1.2225   -1.6418 H   0  0  0  0  0  0  0  0  0  0  0  0
   -1.7335    1.8988   -0.7005 H   0  0  0  0  0  0  0  0  0  0  0  0
   -1.9359   -1.6350    1.2205 H   0  0  0  0  0  0  0  0  0  0  0  0
   -2.7518   -1.9300   -0.4152 H   0  0  0  0  0  0  0  0  0  0  0  0
    1.2703   -1.2118    1.0697 H   0  0  0  0  0  0  0  0  0  0  0  0
    0.5476    0.3535    1.7354 H   0  0  0  0  0  0  0  0  0  0  0  0
    2.9854    0.7654    1.9732 H   0  0  0  0  0  0  0  0  0  0  0  0
  1  2  2  0
  2  3  1  0
  3  4  1  0
  4  5  1  0
  5  6  1  0
  6  7  2  0
  7  8  1  0
  8  9  2  0
  8 10  1  0
 10 11  1  0
  4 12  1  0
 12 13  1  0
 13  2  1  0
 11  6  1  0
  3 14  1  0
  3 15  1  0
  4 16  1  1
  5 17  1  0
  7 18  1  0
 11 19  1  0
 11 20  1  0
 12 21  1  0
 12 22  1  0
 13 23  1  0
M  END
$$$$

     RDKit          3D

 23 24  0  0  0  0  0  0  0  0999 V2000
   -3.4269    1.7781   -1.0025 O   0  0  0  0  0  0  0  0  0  0  0  0
   -2.7207    0.8978   -0.4663 C   0  0  0  0  0  0  0  0  0  0  0  0
   -1.2605    0.9810   -0.1024 C   0  0  0  0  0  0  0  0  0  0  0  0
   -0.8746   -0.4898   -0.2451 C   0  0  1  0  0  0  0  0  0  0  0  0
    0.3201   -0.8185    0.4606 N   0  0  0  0  0  0  0  0  0  0  0  0
    1.5694   -0.1957    0.1797 C   0  0  0  0  0  0  0  0  0  0  0  0
    1.9145    1.0556    0.4360 C   0  0  0  0  0  0  0  0  0  0  0  0
    3.2930    1.2927   -0.0133 C   0  0  0  0  0  0  0  0  0  0  0  0
    3.9127    2.3830    0.0891 O   0  0  0  0  0  0  0  0  0  0  0  0
    3.7221    0.0881   -0.5486 O   0  0  0  0  0  0  0  0  0  0  0  0
    2.7233   -0.8962   -0.4745 C   0  0  0  0  0  0  0  0  0  0  0  0
   -2.0642   -1.1430    0.4604 C   0  0  0  0  0  0  0  0  0  0  0  0
   -3.1641   -0.3973   -0.0799 N   0  0  0  0  0  0  0  0  0  0  0  0
   -1.1830    1.2247    0.9720 H   0  0  0  0  0  0  0  0  0  0  0  0
   -0.7016    1.6344   -0.7676 H   0  0  0  0  0  0  0  0  0  0  0  0
   -0.8646   -0.7743   -1.3196 H   0  0  0  0  0  0  0  0  0  0  0  0
    0.3231   -1.5430    1.2254 H   0  0  0  0  0  0  0  0  0  0  0  0
    1.2685    1.7882    0.9075 H   0  0  0  0  0  0  0  0  0  0  0  0
    2.3714   -1.1774   -1.4860 H   0  0  0  0  0  0  0  0  0  0  0  0
    3.0266   -1.7856    0.1131 H   0  0  0  0  0  0  0  0  0  0  0  0
   -1.9372   -0.9154    1.5522 H   0  0  0  0  0  0  0  0  0  0  0  0
   -2.1111   -2.2248    0.2794 H   0  0  0  0  0  0  0  0  0  0  0  0
   -4.1361   -0.7624   -0.1696 H   0  0  0  0  0  0  0  0  0  0  0  0
  1  2  2  0
  2  3  1  0
  3  4  1  0
  4  5  1  0
  5  6  1  0
  6  7  2  0
  7  8  1  0
  8  9  2  0
  8 10  1  0
 10 11  1  0
  4 12  1  0
 12 13  1  0
 13  2  1  0
 11  6  1  0
  3 14  1  0
  3 15  1  0
  4 16  1  6
  5 17  1  0
  7 18  1  0
 11 19  1  0
 11 20  1  0
 12 21  1  0
 12 22  1  0
 13 23  1  0
M  END
$$$$

     RDKit          3D

 23 24  0  0  0  0  0  0  0  0999 V2000
    4.3697    0.0452    0.5351 O   0  0  0  0  0  0  0  0  0  0  0  0
    3.1383    0.1827    0.3189 C   0  0  0  0  0  0  0  0  0  0  0  0
    2.2756   -0.7977   -0.4024 C   0  0  0  0  0  0  0  0  0  0  0  0
    0.9385   -0.1508   -0.3779 C   0  0  1  0  0  0  0  0  0  0  0  0
   -0.1563   -1.0625   -0.2598 N   0  0  0  0  0  0  0  0  0  0  0  0
   -1.4933   -0.5139   -0.2287 C   0  0  0  0  0  0  0  0  0  0  0  0
   -1.8571    0.5827   -0.8651 C   0  0  0  0  0  0  0  0  0  0  0  0
   -3.2611    0.8283   -0.6075 C   0  0  0  0  0  0  0  0  0  0  0  0
   -3.9013    1.8193   -1.0885 O   0  0  0  0  0  0  0  0  0  0  0  0
   -3.7054   -0.1829    0.2153 O   0  0  0  0  0  0  0  0  0  0  0  0
   -2.6585   -1.0590    0.4949 C   0  0  0  0  0  0  0  0  0  0  0  0
    0.9761    0.8935    0.7135 C   0  0  0  0  0  0  0  0  0  0  0  0
    2.3717    1.3065    0.7337 N   0  0  0  0  0  0  0  0  0  0  0  0
    2.6179   -0.9425   -1.4628 H   0  0  0  0  0  0  0  0  0  0  0  0
    2.3309   -1.7520    0.1462 H   0  0  0  0  0  0  0  0  0  0  0  0
    0.8005    0.4110   -1.3434 H   0  0  0  0  0  0  0  0  0  0  0  0
   -0.0284   -2.0847   -0.1967 H   0  0  0  0  0  0  0  0  0  0  0  0
   -1.1660    1.1812   -1.4817 H   0  0  0  0  0  0  0  0  0  0  0  0
   -2.9078   -2.0502    0.0294 H   0  0  0  0  0  0  0  0  0  0  0  0
   -2.4667   -1.1700    1.5852 H   0  0  0  0  0  0  0  0  0  0  0  0
    0.3792    1.7871    0.4683 H   0  0  0  0  0  0  0  0  0  0  0  0
    0.6319    0.4876    1.6721 H   0  0  0  0  0  0  0  0  0  0  0  0
    2.7715    2.2411    0.9970 H   0  0  0  0  0  0  0  0  0  0  0  0
  1  2  2  0
  2  3  1  0
  3  4  1  0
  4  5  1  0
  5  6  1  0
  6  7  2  0
  7  8  1  0
  8  9  2  0
  8 10  1  0
 10 11  1  0
  4 12  1  0
 12 13  1  0
 13  2  1  0
 11  6  1  0
  3 14  1  0
  3 15  1  0
  4 16  1  6
  5 17  1  0
  7 18  1  0
 11 19  1  0
 11 20  1  0
 12 21  1  0
 12 22  1  0
 13 23  1  0
M  END
$$$$

     RDKit          3D

 23 24  0  0  0  0  0  0  0  0999 V2000
    4.2756   -0.6383    0.7748 O   0  0  0  0  0  0  0  0  0  0  0  0
    3.1278   -0.3652    0.3661 C   0  0  0  0  0  0  0  0  0  0  0  0
    2.1181    0.4295    1.1062 C   0  0  0  0  0  0  0  0  0  0  0  0
    0.8456   -0.0853    0.4855 C   0  0  1  0  0  0  0  0  0  0  0  0
   -0.2981    0.7256    0.7735 N   0  0  0  0  0  0  0  0  0  0  0  0
   -1.5500    0.3176    0.2283 C   0  0  0  0  0  0  0  0  0  0  0  0
   -2.1936   -0.8245    0.5016 C   0  0  0  0  0  0  0  0  0  0  0  0
   -3.4399   -0.8868   -0.2453 C   0  0  0  0  0  0  0  0  0  0  0  0
   -4.2950   -1.8031   -0.2391 O   0  0  0  0  0  0  0  0  0  0  0  0
   -3.5060    0.2799   -0.9796 O   0  0  0  0  0  0  0  0  0  0  0  0
   -2.3676    1.0674   -0.7311 C   0  0  0  0  0  0  0  0  0  0  0  0
    1.2196   -0.1465   -0.9580 C   0  0  0  0  0  0  0  0  0  0  0  0
    2.5461   -0.7459   -0.8706 N   0  0  0  0  0  0  0  0  0  0  0  0
    2.2566    1.5022    0.8189 H   0  0  0  0  0  0  0  0  0  0  0  0
    2.1586    0.2725    2.1956 H   0  0  0  0  0  0  0  0  0  0  0  0
    0.7197   -1.1412    0.8403 H   0  0  0  0  0  0  0  0  0  0  0  0
   -0.2175    1.5754    1.3556 H   0  0  0  0  0  0  0  0  0  0  0  0
   -1.7865   -1.5567    1.1925 H   0  0  0  0  0  0  0  0  0  0  0  0
   -2.7064    2.0488   -0.3533 H   0  0  0  0  0  0  0  0  0  0  0  0
   -1.7864    1.1794   -1.6820 H   0  0  0  0  0  0  0  0  0  0  0  0
    1.3825    0.8810   -1.3801 H   0  0  0  0  0  0  0  0  0  0  0  0
    0.5358   -0.7390   -1.5869 H   0  0  0  0  0  0  0  0  0  0  0  0
    2.9611   -1.3468   -1.6130 H   0  0  0  0  0  0  0  0  0  0  0  0
  1  2  2  0
  2  3  1  0
  3  4  1  0
  4  5  1  0
  5  6  1  0
  6  7  2  0
  7  8  1  0
  8  9  2  0
  8 10  1  0
 10 11  1  0
  4 12  1  0
 12 13  1  0
 13  2  1  0
 11  6  1  0
  3 14  1  0
  3 15  1  0
  4 16  1  1
  5 17  1  0
  7 18  1  0
 11 19  1  0
 11 20  1  0
 12 21  1  0
 12 22  1  0
 13 23  1  0
M  END
$$$$

     RDKit          3D

 23 24  0  0  0  0  0  0  0  0999 V2000
    4.3123    0.7280   -0.7938 O   0  0  0  0  0  0  0  0  0  0  0  0
    3.1792    0.2287   -0.6045 C   0  0  0  0  0  0  0  0  0  0  0  0
    1.9435    0.5773   -1.3819 C   0  0  0  0  0  0  0  0  0  0  0  0
    0.8817    0.4319   -0.3179 C   0  0  1  0  0  0  0  0  0  0  0  0
   -0.3964    0.3056   -0.9487 N   0  0  0  0  0  0  0  0  0  0  0  0
   -1.6070    0.1507   -0.1644 C   0  0  0  0  0  0  0  0  0  0  0  0
   -2.0838   -0.9867    0.3021 C   0  0  0  0  0  0  0  0  0  0  0  0
   -3.3161   -0.7765    1.0465 C   0  0  0  0  0  0  0  0  0  0  0  0
   -4.0560   -1.6120    1.6343 O   0  0  0  0  0  0  0  0  0  0  0  0
   -3.5325    0.5875    0.9829 O   0  0  0  0  0  0  0  0  0  0  0  0
   -2.5225    1.2316    0.2532 C   0  0  0  0  0  0  0  0  0  0  0  0
    1.3234   -0.8739    0.3552 C   0  0  0  0  0  0  0  0  0  0  0  0
    2.7673   -0.7515    0.3441 N   0  0  0  0  0  0  0  0  0  0  0  0
    1.7989   -0.2181   -2.1346 H   0  0  0  0  0  0  0  0  0  0  0  0
    2.0160    1.5812   -1.8034 H   0  0  0  0  0  0  0  0  0  0  0  0
    0.9234    1.2739    0.4088 H   0  0  0  0  0  0  0  0  0  0  0  0
   -0.4606    0.3250   -1.9890 H   0  0  0  0  0  0  0  0  0  0  0  0
   -1.6184   -1.9511    0.1505 H   0  0  0  0  0  0  0  0  0  0  0  0
   -2.9255    1.7959   -0.6170 H   0  0  0  0  0  0  0  0  0  0  0  0
   -2.0102    1.9355    0.9746 H   0  0  0  0  0  0  0  0  0  0  0  0
    1.0594   -1.6880   -0.3539 H   0  0  0  0  0  0  0  0  0  0  0  0
    0.8986   -0.9905    1.3531 H   0  0  0  0  0  0  0  0  0  0  0  0
    3.4254   -1.3047    0.9482 H   0  0  0  0  0  0  0  0  0  0  0  0
  1  2  2  0
  2  3  1  0
  3  4  1  0
  4  5  1  0
  5  6  1  0
  6  7  2  0
  7  8  1  0
  8  9  2  0
  8 10  1  0
 10 11  1  0
  4 12  1  0
 12 13  1  0
 13  2  1  0
 11  6  1  0
  3 14  1  0
  3 15  1  0
  4 16  1  1
  5 17  1  0
  7 18  1  0
 11 19  1  0
 11 20  1  0
 12 21  1  0
 12 22  1  0
 13 23  1  0
M  END
$$$$

     RDKit          3D

 23 24  0  0  0  0  0  0  0  0999 V2000
   -3.0998    0.1628   -2.1091 O   0  0  0  0  0  0  0  0  0  0  0  0
   -2.5524   -0.0365   -0.9705 C   0  0  0  0  0  0  0  0  0  0  0  0
   -1.2225   -0.6225   -0.6991 C   0  0  0  0  0  0  0  0  0  0  0  0
   -0.8714   -0.1482    0.6736 C   0  0  1  0  0  0  0  0  0  0  0  0
    0.2993    0.7076    0.6342 N   0  0  0  0  0  0  0  0  0  0  0  0
    1.5284    0.1624    0.1265 C   0  0  0  0  0  0  0  0  0  0  0  0
    1.8321   -1.1030    0.0280 C   0  0  0  0  0  0  0  0  0  0  0  0
    3.1620   -1.2378   -0.5323 C   0  0  0  0  0  0  0  0  0  0  0  0
    3.8013   -2.2930   -0.7779 O   0  0  0  0  0  0  0  0  0  0  0  0
    3.6415    0.0411   -0.7659 O   0  0  0  0  0  0  0  0  0  0  0  0
    2.6635    0.9559   -0.3733 C   0  0  0  0  0  0  0  0  0  0  0  0
   -2.0507    0.6570    1.1753 C   0  0  0  0  0  0  0  0  0  0  0  0
   -3.1393    0.2783    0.2870 N   0  0  0  0  0  0  0  0  0  0  0  0
   -1.3229   -1.7349   -0.7609 H   0  0  0  0  0  0  0  0  0  0  0  0
   -0.5233   -0.2478   -1.4890 H   0  0  0  0  0  0  0  0  0  0  0  0
   -0.6442   -0.9993    1.3551 H   0  0  0  0  0  0  0  0  0  0  0  0
    0.2677    1.6877    0.9594 H   0  0  0  0  0  0  0  0  0  0  0  0
    1.1695   -1.9274    0.3285 H   0  0  0  0  0  0  0  0  0  0  0  0
    2.3754    1.5546   -1.2604 H   0  0  0  0  0  0  0  0  0  0  0  0
    3.0186    1.6681    0.4092 H   0  0  0  0  0  0  0  0  0  0  0  0
   -2.2784    0.4799    2.2286 H   0  0  0  0  0  0  0  0  0  0  0  0
   -1.8877    1.7528    1.0105 H   0  0  0  0  0  0  0  0  0  0  0  0
   -4.1669    0.2419    0.5225 H   0  0  0  0  0  0  0  0  0  0  0  0
  1  2  2  0
  2  3  1  0
  3  4  1  0
  4  5  1  0
  5  6  1  0
  6  7  2  0
  7  8  1  0
  8  9  2  0
  8 10  1  0
 10 11  1  0
  4 12  1  0
 12 13  1  0
 13  2  1  0
 11  6  1  0
  3 14  1  0
  3 15  1  0
  4 16  1  1
  5 17  1  0
  7 18  1  0
 11 19  1  0
 11 20  1  0
 12 21  1  0
 12 22  1  0
 13 23  1  0
M  END
$$$$
