
     RDKit          3D

 23 24  0  0  0  0  0  0  0  0999 V2000
   -3.2595    0.6498   -0.1767 C   0  0  0  0  0  0  0  0  0  0  0  0
   -2.4291   -0.3185    0.5225 N   0  0  0  0  0  0  0  0  0  0  0  0
   -2.8572   -1.0578    1.5262 N   0  0  0  0  0  0  0  0  0  0  0  0
   -1.8788   -1.8170    1.9296 N   0  0  0  0  0  0  0  0  0  0  0  0
   -0.8149   -1.5701    1.1869 N   0  0  0  0  0  0  0  0  0  0  0  0
   -1.1291   -0.6263    0.2863 C   0  0  0  0  0  0  0  0  0  0  0  0
   -0.3738    0.0356   -0.7805 C   0  0  0  0  0  0  0  0  0  0  0  0
    1.0335   -0.3590   -0.9571 C   0  0  0  0  0  0  0  0  0  0  0  0
    1.9229   -0.1613    0.1283 N   0  0  0  0  0  0  0  0  0  0  0  0
    2.2276   -1.0304    1.0646 N   0  0  0  0  0  0  0  0  0  0  0  0
    3.1016   -0.4895    1.8964 N   0  0  0  0  0  0  0  0  0  0  0  0
    3.3797    0.7279    1.5219 N   0  0  0  0  0  0  0  0  0  0  0  0
    2.6508    0.9540    0.4142 C   0  0  0  0  0  0  0  0  0  0  0  0
    2.6533    2.0394   -0.2463 N   0  0  0  0  0  0  0  0  0  0  0  0
   -2.6599    1.5681   -0.4427 H   0  0  0  0  0  0  0  0  0  0  0  0
   -4.1077    0.9467    0.4457 H   0  0  0  0  0  0  0  0  0  0  0  0
   -3.6292    0.2031   -1.1297 H   0  0  0  0  0  0  0  0  0  0  0  0
   -0.5510    1.1238   -0.6752 H   0  0  0  0  0  0  0  0  0  0  0  0
   -0.9060   -0.2303   -1.7439 H   0  0  0  0  0  0  0  0  0  0  0  0
    1.4440    0.0687   -1.9221 H   0  0  0  0  0  0  0  0  0  0  0  0
    1.0280   -1.4706   -1.1820 H   0  0  0  0  0  0  0  0  0  0  0  0
    1.9033   -2.0139    1.2248 H   0  0  0  0  0  0  0  0  0  0  0  0
    3.2517    2.8278    0.0674 H   0  0  0  0  0  0  0  0  0  0  0  0
  1  2  1  0
  2  3  1  0
  3  4  2  0
  4  5  1  0
  5  6  2  0
  6  7  1  0
  7  8  1  0
  8  9  1  0
  9 10  1  0
 10 11  1  0
 11 12  2  0
 12 13  1  0
 13 14  2  3
  6  2  1  0
 13  9  1  0
  1 15  1  0
  1 16  1  0
  1 17  1  0
  7 18  1  0
  7 19  1  0
  8 20  1  0
  8 21  1  0
 10 22  1  0
 14 23  1  0
M  END
$$$$

     RDKit          3D

 23 24  0  0  0  0  0  0  0  0999 V2000
    2.7616   -0.8764   -0.1816 C   0  0  0  0  0  0  0  0  0  0  0  0
    2.5003    0.2614    0.7121 N   0  0  0  0  0  0  0  0  0  0  0  0
    3.3178    0.7368    1.6264 N   0  0  0  0  0  0  0  0  0  0  0  0
    2.7152    1.7589    2.2143 N   0  0  0  0  0  0  0  0  0  0  0  0
    1.5152    1.9422    1.6824 N   0  0  0  0  0  0  0  0  0  0  0  0
    1.3722    0.9946    0.7276 C   0  0  0  0  0  0  0  0  0  0  0  0
    0.2150    0.7519   -0.1710 C   0  0  0  0  0  0  0  0  0  0  0  0
   -0.7274   -0.2334    0.5330 C   0  0  0  0  0  0  0  0  0  0  0  0
   -1.8751   -0.5081   -0.2962 N   0  0  0  0  0  0  0  0  0  0  0  0
   -1.9402   -1.4845   -1.1837 N   0  0  0  0  0  0  0  0  0  0  0  0
   -3.1274   -1.4236   -1.7396 N   0  0  0  0  0  0  0  0  0  0  0  0
   -3.8347   -0.4300   -1.2333 N   0  0  0  0  0  0  0  0  0  0  0  0
   -3.0460    0.1562   -0.3157 C   0  0  0  0  0  0  0  0  0  0  0  0
   -3.3921    1.1792    0.4017 N   0  0  0  0  0  0  0  0  0  0  0  0
    3.8216   -1.1842   -0.0666 H   0  0  0  0  0  0  0  0  0  0  0  0
    2.1084   -1.7266    0.0849 H   0  0  0  0  0  0  0  0  0  0  0  0
    2.6484   -0.5596   -1.2465 H   0  0  0  0  0  0  0  0  0  0  0  0
    0.5346    0.3680   -1.1545 H   0  0  0  0  0  0  0  0  0  0  0  0
   -0.3414    1.7176   -0.2547 H   0  0  0  0  0  0  0  0  0  0  0  0
   -0.1957   -1.1748    0.7648 H   0  0  0  0  0  0  0  0  0  0  0  0
   -1.0728    0.3025    1.4478 H   0  0  0  0  0  0  0  0  0  0  0  0
   -1.1787   -2.1858   -1.4065 H   0  0  0  0  0  0  0  0  0  0  0  0
   -2.7787    1.6177    1.1000 H   0  0  0  0  0  0  0  0  0  0  0  0
  1  2  1  0
  2  3  1  0
  3  4  2  0
  4  5  1  0
  5  6  2  0
  6  7  1  0
  7  8  1  0
  8  9  1  0
  9 10  1  0
 10 11  1  0
 11 12  2  0
 12 13  1  0
 13 14  2  3
  6  2  1  0
 13  9  1  0
  1 15  1  0
  1 16  1  0
  1 17  1  0
  7 18  1  0
  7 19  1  0
  8 20  1  0
  8 21  1  0
 10 22  1  0
 14 23  1  0
M  END
$$$$

     RDKit          3D

 23 24  0  0  0  0  0  0  0  0999 V2000
    2.8866    0.7975    0.1679 C   0  0  0  0  0  0  0  0  0  0  0  0
    2.4685   -0.5783    0.3134 N   0  0  0  0  0  0  0  0  0  0  0  0
    3.2466   -1.5174    0.8200 N   0  0  0  0  0  0  0  0  0  0  0  0
    2.6183   -2.6701    0.8355 N   0  0  0  0  0  0  0  0  0  0  0  0
    1.4255   -2.4562    0.3311 N   0  0  0  0  0  0  0  0  0  0  0  0
    1.3098   -1.1755    0.0023 C   0  0  0  0  0  0  0  0  0  0  0  0
    0.1250   -0.4832   -0.6052 C   0  0  0  0  0  0  0  0  0  0  0  0
   -0.7243    0.0110    0.5400 C   0  0  0  0  0  0  0  0  0  0  0  0
   -1.9073    0.7021    0.0746 N   0  0  0  0  0  0  0  0  0  0  0  0
   -2.0133    1.9959   -0.1767 N   0  0  0  0  0  0  0  0  0  0  0  0
   -3.2568    2.1832   -0.5742 N   0  0  0  0  0  0  0  0  0  0  0  0
   -3.9244    1.0409   -0.5760 N   0  0  0  0  0  0  0  0  0  0  0  0
   -3.0712    0.0854   -0.1625 C   0  0  0  0  0  0  0  0  0  0  0  0
   -3.3524   -1.1881   -0.0284 N   0  0  0  0  0  0  0  0  0  0  0  0
    2.0327    1.5066    0.1478 H   0  0  0  0  0  0  0  0  0  0  0  0
    3.5282    0.8982   -0.7314 H   0  0  0  0  0  0  0  0  0  0  0  0
    3.5031    1.0589    1.0668 H   0  0  0  0  0  0  0  0  0  0  0  0
   -0.4349   -1.2479   -1.1786 H   0  0  0  0  0  0  0  0  0  0  0  0
    0.4696    0.3661   -1.2224 H   0  0  0  0  0  0  0  0  0  0  0  0
   -0.0733    0.6535    1.1732 H   0  0  0  0  0  0  0  0  0  0  0  0
   -1.0107   -0.8698    1.1436 H   0  0  0  0  0  0  0  0  0  0  0  0
   -1.2423    2.7145   -0.0724 H   0  0  0  0  0  0  0  0  0  0  0  0
   -2.6029   -1.8272    0.3007 H   0  0  0  0  0  0  0  0  0  0  0  0
  1  2  1  0
  2  3  1  0
  3  4  2  0
  4  5  1  0
  5  6  2  0
  6  7  1  0
  7  8  1  0
  8  9  1  0
  9 10  1  0
 10 11  1  0
 11 12  2  0
 12 13  1  0
 13 14  2  3
  6  2  1  0
 13  9  1  0
  1 15  1  0
  1 16  1  0
  1 17  1  0
  7 18  1  0
  7 19  1  0
  8 20  1  0
  8 21  1  0
 10 22  1  0
 14 23  1  0
M  END
$$$$

     RDKit          3D

 23 24  0  0  0  0  0  0  0  0999 V2000
    2.9143   -0.8479    0.0242 C   0  0  0  0  0  0  0  0  0  0  0  0
    2.6518    0.5703   -0.0528 N   0  0  0  0  0  0  0  0  0  0  0  0
    3.5010    1.5430   -0.3527 N   0  0  0  0  0  0  0  0  0  0  0  0
    2.8839    2.7089   -0.3195 N   0  0  0  0  0  0  0  0  0  0  0  0
    1.6281    2.4492    0.0077 N   0  0  0  0  0  0  0  0  0  0  0  0
    1.4474    1.1221    0.1820 C   0  0  0  0  0  0  0  0  0  0  0  0
    0.1836    0.4337    0.5534 C   0  0  0  0  0  0  0  0  0  0  0  0
   -0.6173    0.0416   -0.6838 C   0  0  0  0  0  0  0  0  0  0  0  0
   -1.8217   -0.6180   -0.2156 N   0  0  0  0  0  0  0  0  0  0  0  0
   -2.0221   -1.8987    0.0237 N   0  0  0  0  0  0  0  0  0  0  0  0
   -3.2671   -2.0592    0.4359 N   0  0  0  0  0  0  0  0  0  0  0  0
   -3.8956   -0.8890    0.4717 N   0  0  0  0  0  0  0  0  0  0  0  0
   -2.9840    0.0120    0.0619 C   0  0  0  0  0  0  0  0  0  0  0  0
   -3.1597    1.3032   -0.0611 N   0  0  0  0  0  0  0  0  0  0  0  0
    3.9973   -1.0641   -0.1247 H   0  0  0  0  0  0  0  0  0  0  0  0
    2.5825   -1.2644    1.0147 H   0  0  0  0  0  0  0  0  0  0  0  0
    2.2881   -1.3736   -0.7338 H   0  0  0  0  0  0  0  0  0  0  0  0
   -0.4689    1.0653    1.1937 H   0  0  0  0  0  0  0  0  0  0  0  0
    0.4253   -0.4972    1.0794 H   0  0  0  0  0  0  0  0  0  0  0  0
   -0.8495    0.9126   -1.3119 H   0  0  0  0  0  0  0  0  0  0  0  0
   -0.0045   -0.6870   -1.2779 H   0  0  0  0  0  0  0  0  0  0  0  0
   -1.3193   -2.6703   -0.0902 H   0  0  0  0  0  0  0  0  0  0  0  0
   -4.0934    1.7076    0.1758 H   0  0  0  0  0  0  0  0  0  0  0  0
  1  2  1  0
  2  3  1  0
  3  4  2  0
  4  5  1  0
  5  6  2  0
  6  7  1  0
  7  8  1  0
  8  9  1  0
  9 10  1  0
 10 11  1  0
 11 12  2  0
 12 13  1  0
 13 14  2  3
  6  2  1  0
 13  9  1  0
  1 15  1  0
  1 16  1  0
  1 17  1  0
  7 18  1  0
  7 19  1  0
  8 20  1  0
  8 21  1  0
 10 22  1  0
 14 23  1  0
M  END
$$$$

     RDKit          3D

 23 24  0  0  0  0  0  0  0  0999 V2000
   -2.7805   -1.0169    0.0829 C   0  0  0  0  0  0  0  0  0  0  0  0
   -2.5844    0.3634   -0.3135 N   0  0  0  0  0  0  0  0  0  0  0  0
   -3.4687    1.3415   -0.3340 N   0  0  0  0  0  0  0  0  0  0  0  0
   -2.8982    2.4533   -0.7583 N   0  0  0  0  0  0  0  0  0  0  0  0
   -1.6405    2.1536   -1.0030 N   0  0  0  0  0  0  0  0  0  0  0  0
   -1.4008    0.8440   -0.7353 C   0  0  0  0  0  0  0  0  0  0  0  0
   -0.1021    0.1179   -0.8835 C   0  0  0  0  0  0  0  0  0  0  0  0
    0.6272    0.2426    0.4267 C   0  0  0  0  0  0  0  0  0  0  0  0
    1.9020   -0.4105    0.4368 N   0  0  0  0  0  0  0  0  0  0  0  0
    2.2362   -1.6415    0.7642 N   0  0  0  0  0  0  0  0  0  0  0  0
    3.5380   -1.8075    0.6210 N   0  0  0  0  0  0  0  0  0  0  0  0
    4.0423   -0.6623    0.1950 N   0  0  0  0  0  0  0  0  0  0  0  0
    3.0460    0.2002    0.0792 C   0  0  0  0  0  0  0  0  0  0  0  0
    3.2049    1.4262   -0.3201 N   0  0  0  0  0  0  0  0  0  0  0  0
   -2.4741   -1.1106    1.1338 H   0  0  0  0  0  0  0  0  0  0  0  0
   -2.1605   -1.6951   -0.5249 H   0  0  0  0  0  0  0  0  0  0  0  0
   -3.8812   -1.2193   -0.0587 H   0  0  0  0  0  0  0  0  0  0  0  0
   -0.2930   -0.9452   -1.0739 H   0  0  0  0  0  0  0  0  0  0  0  0
    0.4351    0.5930   -1.7175 H   0  0  0  0  0  0  0  0  0  0  0  0
    0.7683    1.3161    0.6645 H   0  0  0  0  0  0  0  0  0  0  0  0
   -0.0178   -0.2168    1.2111 H   0  0  0  0  0  0  0  0  0  0  0  0
    1.5367   -2.3719    1.0921 H   0  0  0  0  0  0  0  0  0  0  0  0
    2.3650    2.0458   -0.3847 H   0  0  0  0  0  0  0  0  0  0  0  0
  1  2  1  0
  2  3  1  0
  3  4  2  0
  4  5  1  0
  5  6  2  0
  6  7  1  0
  7  8  1  0
  8  9  1  0
  9 10  1  0
 10 11  1  0
 11 12  2  0
 12 13  1  0
 13 14  2  3
  6  2  1  0
 13  9  1  0
  1 15  1  0
  1 16  1  0
  1 17  1  0
  7 18  1  0
  7 19  1  0
  8 20  1  0
  8 21  1  0
 10 22  1  0
 14 23  1  0
M  END
$$$$

     RDKit          3D

 23 24  0  0  0  0  0  0  0  0999 V2000
   -2.8067    0.7902   -0.4552 C   0  0  0  0  0  0  0  0  0  0  0  0
   -2.5621   -0.6122   -0.1785 N   0  0  0  0  0  0  0  0  0  0  0  0
   -3.4134   -1.6155   -0.4015 N   0  0  0  0  0  0  0  0  0  0  0  0
   -2.8277   -2.7428   -0.0195 N   0  0  0  0  0  0  0  0  0  0  0  0
   -1.6060   -2.4300    0.4422 N   0  0  0  0  0  0  0  0  0  0  0  0
   -1.4310   -1.1102    0.3480 C   0  0  0  0  0  0  0  0  0  0  0  0
   -0.2538   -0.2951    0.7283 C   0  0  0  0  0  0  0  0  0  0  0  0
    0.6627   -0.1963   -0.4566 C   0  0  0  0  0  0  0  0  0  0  0  0
    1.8133    0.6090   -0.0607 N   0  0  0  0  0  0  0  0  0  0  0  0
    1.9529    1.9086   -0.1528 N   0  0  0  0  0  0  0  0  0  0  0  0
    3.1351    2.2335    0.3126 N   0  0  0  0  0  0  0  0  0  0  0  0
    3.7344    1.1275    0.6968 N   0  0  0  0  0  0  0  0  0  0  0  0
    2.9310    0.0997    0.4746 C   0  0  0  0  0  0  0  0  0  0  0  0
    3.1205   -1.1632    0.7026 N   0  0  0  0  0  0  0  0  0  0  0  0
   -1.8642    1.3550   -0.4576 H   0  0  0  0  0  0  0  0  0  0  0  0
   -3.2664    0.9149   -1.4768 H   0  0  0  0  0  0  0  0  0  0  0  0
   -3.5369    1.1423    0.3084 H   0  0  0  0  0  0  0  0  0  0  0  0
    0.3280   -0.7609    1.5562 H   0  0  0  0  0  0  0  0  0  0  0  0
   -0.5587    0.7026    1.0829 H   0  0  0  0  0  0  0  0  0  0  0  0
    1.0088   -1.2283   -0.7252 H   0  0  0  0  0  0  0  0  0  0  0  0
    0.1734    0.2041   -1.3581 H   0  0  0  0  0  0  0  0  0  0  0  0
    1.2713    2.6022   -0.5239 H   0  0  0  0  0  0  0  0  0  0  0  0
    3.9955   -1.5352    1.1185 H   0  0  0  0  0  0  0  0  0  0  0  0
  1  2  1  0
  2  3  1  0
  3  4  2  0
  4  5  1  0
  5  6  2  0
  6  7  1  0
  7  8  1  0
  8  9  1  0
  9 10  1  0
 10 11  1  0
 11 12  2  0
 12 13  1  0
 13 14  2  3
  6  2  1  0
 13  9  1  0
  1 15  1  0
  1 16  1  0
  1 17  1  0
  7 18  1  0
  7 19  1  0
  8 20  1  0
  8 21  1  0
 10 22  1  0
 14 23  1  0
M  END
$$$$

     RDKit          3D

 23 24  0  0  0  0  0  0  0  0999 V2000
   -1.4991    0.9555    1.0769 C   0  0  0  0  0  0  0  0  0  0  0  0
   -1.8544   -0.0842    0.1301 N   0  0  0  0  0  0  0  0  0  0  0  0
   -2.8956   -0.8903    0.3481 N   0  0  0  0  0  0  0  0  0  0  0  0
   -2.9367   -1.6900   -0.6858 N   0  0  0  0  0  0  0  0  0  0  0  0
   -1.9758   -1.4298   -1.5434 N   0  0  0  0  0  0  0  0  0  0  0  0
   -1.2679   -0.3855   -1.0176 C   0  0  0  0  0  0  0  0  0  0  0  0
   -0.0907    0.2748   -1.5899 C   0  0  0  0  0  0  0  0  0  0  0  0
    1.1725   -0.3969   -1.1781 C   0  0  0  0  0  0  0  0  0  0  0  0
    1.3279   -0.3857    0.2583 N   0  0  0  0  0  0  0  0  0  0  0  0
    0.9002   -1.3178    1.0818 N   0  0  0  0  0  0  0  0  0  0  0  0
    1.2471   -0.9341    2.3008 N   0  0  0  0  0  0  0  0  0  0  0  0
    1.8842    0.2177    2.2753 N   0  0  0  0  0  0  0  0  0  0  0  0
    1.9426    0.5827    0.9589 C   0  0  0  0  0  0  0  0  0  0  0  0
    2.4899    1.6601    0.5019 N   0  0  0  0  0  0  0  0  0  0  0  0
   -2.3987    1.5976    1.2601 H   0  0  0  0  0  0  0  0  0  0  0  0
   -1.1197    0.5081    2.0048 H   0  0  0  0  0  0  0  0  0  0  0  0
   -0.7309    1.6463    0.6904 H   0  0  0  0  0  0  0  0  0  0  0  0
   -0.2326    0.3327   -2.6822 H   0  0  0  0  0  0  0  0  0  0  0  0
   -0.0327    1.3506   -1.2519 H   0  0  0  0  0  0  0  0  0  0  0  0
    2.0181    0.1797   -1.6236 H   0  0  0  0  0  0  0  0  0  0  0  0
    1.1907   -1.4471   -1.5672 H   0  0  0  0  0  0  0  0  0  0  0  0
    0.3929   -2.1698    0.7734 H   0  0  0  0  0  0  0  0  0  0  0  0
    2.4686    1.8256   -0.5213 H   0  0  0  0  0  0  0  0  0  0  0  0
  1  2  1  0
  2  3  1  0
  3  4  2  0
  4  5  1  0
  5  6  2  0
  6  7  1  0
  7  8  1  0
  8  9  1  0
  9 10  1  0
 10 11  1  0
 11 12  2  0
 12 13  1  0
 13 14  2  3
  6  2  1  0
 13  9  1  0
  1 15  1  0
  1 16  1  0
  1 17  1  0
  7 18  1  0
  7 19  1  0
  8 20  1  0
  8 21  1  0
 10 22  1  0
 14 23  1  0
M  END
$$$$

     RDKit          3D

 23 24  0  0  0  0  0  0  0  0999 V2000
    2.4292   -1.4073    0.5697 C   0  0  0  0  0  0  0  0  0  0  0  0
    1.9394   -0.0774    0.8338 N   0  0  0  0  0  0  0  0  0  0  0  0
    2.2009    0.6756    1.8834 N   0  0  0  0  0  0  0  0  0  0  0  0
    1.5834    1.8300    1.7911 N   0  0  0  0  0  0  0  0  0  0  0  0
    0.9126    1.7807    0.6304 N   0  0  0  0  0  0  0  0  0  0  0  0
    1.1206    0.6132    0.0278 C   0  0  0  0  0  0  0  0  0  0  0  0
    0.5864    0.1292   -1.2586 C   0  0  0  0  0  0  0  0  0  0  0  0
   -0.7260   -0.6021   -1.1338 C   0  0  0  0  0  0  0  0  0  0  0  0
   -1.7737    0.2256   -0.5624 N   0  0  0  0  0  0  0  0  0  0  0  0
   -2.5637    1.0013   -1.2945 N   0  0  0  0  0  0  0  0  0  0  0  0
   -3.3845    1.6120   -0.4613 N   0  0  0  0  0  0  0  0  0  0  0  0
   -3.1181    1.2292    0.7738 N   0  0  0  0  0  0  0  0  0  0  0  0
   -2.0962    0.3491    0.7131 C   0  0  0  0  0  0  0  0  0  0  0  0
   -1.5367   -0.2700    1.7256 N   0  0  0  0  0  0  0  0  0  0  0  0
    2.4380   -1.5913   -0.5201 H   0  0  0  0  0  0  0  0  0  0  0  0
    1.7851   -2.2006    1.0333 H   0  0  0  0  0  0  0  0  0  0  0  0
    3.4507   -1.5717    0.9993 H   0  0  0  0  0  0  0  0  0  0  0  0
    1.3104   -0.4918   -1.8175 H   0  0  0  0  0  0  0  0  0  0  0  0
    0.3735    1.0195   -1.9210 H   0  0  0  0  0  0  0  0  0  0  0  0
   -0.5523   -1.4894   -0.4689 H   0  0  0  0  0  0  0  0  0  0  0  0
   -1.0803   -0.9392   -2.1267 H   0  0  0  0  0  0  0  0  0  0  0  0
   -2.5444    1.1140   -2.3519 H   0  0  0  0  0  0  0  0  0  0  0  0
   -0.7544   -0.9384    1.5689 H   0  0  0  0  0  0  0  0  0  0  0  0
  1  2  1  0
  2  3  1  0
  3  4  2  0
  4  5  1  0
  5  6  2  0
  6  7  1  0
  7  8  1  0
  8  9  1  0
  9 10  1  0
 10 11  1  0
 11 12  2  0
 12 13  1  0
 13 14  2  3
  6  2  1  0
 13  9  1  0
  1 15  1  0
  1 16  1  0
  1 17  1  0
  7 18  1  0
  7 19  1  0
  8 20  1  0
  8 21  1  0
 10 22  1  0
 14 23  1  0
M  END
$$$$
