
     RDKit          3D

 28 28  0  0  0  0  0  0  0  0999 V2000
   -3.6206   -0.0710   -0.9808 C   0  0  0  0  0  0  0  0  0  0  0  0
   -2.7277    0.8443   -0.2269 C   0  0  0  0  0  0  0  0  0  0  0  0
   -1.2684    0.5803   -0.3598 C   0  0  1  0  0  0  0  0  0  0  0  0
   -0.4069    1.5600    0.4447 C   0  0  0  0  0  0  0  0  0  0  0  0
   -0.4647    0.0656    0.7726 C   0  0  1  0  0  0  0  0  0  0  0  0
   -1.1587   -0.3338    1.9708 N   0  0  0  0  0  0  0  0  0  0  0  0
    0.8213   -0.6121    0.5497 C   0  0  0  0  0  0  0  0  0  0  0  0
    1.3806   -1.1716    1.5201 O   0  0  0  0  0  0  0  0  0  0  0  0
    1.4762   -0.6739   -0.7076 N   0  0  0  0  0  0  0  0  0  0  0  0
    2.7363   -1.3656   -0.8123 C   0  0  0  0  0  0  0  0  0  0  0  0
    3.7791   -0.7822    0.0547 C   0  0  0  0  0  0  0  0  0  0  0  0
    3.4911    0.3440    0.8756 N   0  0  0  0  0  0  0  0  0  0  0  0
    4.9432   -1.2448    0.1057 O   0  0  0  0  0  0  0  0  0  0  0  0
   -3.3294   -1.1162   -0.9964 H   0  0  0  0  0  0  0  0  0  0  0  0
   -4.6411   -0.0253   -0.5095 H   0  0  0  0  0  0  0  0  0  0  0  0
   -3.7904    0.2847   -2.0313 H   0  0  0  0  0  0  0  0  0  0  0  0
   -2.9169    1.8883   -0.6098 H   0  0  0  0  0  0  0  0  0  0  0  0
   -3.0588    0.8865    0.8503 H   0  0  0  0  0  0  0  0  0  0  0  0
   -0.9372    0.2932   -1.3656 H   0  0  0  0  0  0  0  0  0  0  0  0
   -0.8867    2.1860    1.2007 H   0  0  0  0  0  0  0  0  0  0  0  0
    0.4611    1.9522   -0.1176 H   0  0  0  0  0  0  0  0  0  0  0  0
   -1.7918    0.3686    2.3615 H   0  0  0  0  0  0  0  0  0  0  0  0
   -1.5519   -1.2757    1.8221 H   0  0  0  0  0  0  0  0  0  0  0  0
    1.0380   -0.2145   -1.5530 H   0  0  0  0  0  0  0  0  0  0  0  0
    3.0901   -1.4320   -1.8545 H   0  0  0  0  0  0  0  0  0  0  0  0
    2.5533   -2.4197   -0.4611 H   0  0  0  0  0  0  0  0  0  0  0  0
    3.6811    0.2757    1.9063 H   0  0  0  0  0  0  0  0  0  0  0  0
    3.0996    1.2089    0.4325 H   0  0  0  0  0  0  0  0  0  0  0  0
  1  2  1  0
  2  3  1  0
  3  4  1  0
  4  5  1  0
  5  6  1  1
  5  7  1  0
  7  8  2  0
  7  9  1  0
  9 10  1  0
 10 11  1  0
 11 12  1  0
 11 13  2  0
  5  3  1  0
  1 14  1  0
  1 15  1  0
  1 16  1  0
  2 17  1  0
  2 18  1  0
  3 19  1  6
  4 20  1  0
  4 21  1  0
  6 22  1  0
  6 23  1  0
  9 24  1  0
 10 25  1  0
 10 26  1  0
 12 27  1  0
 12 28  1  0
M  END
$$$$

     RDKit          3D

 28 28  0  0  0  0  0  0  0  0999 V2000
   -4.3516    0.3757   -0.6996 C   0  0  0  0  0  0  0  0  0  0  0  0
   -2.9278    0.8623   -0.5990 C   0  0  0  0  0  0  0  0  0  0  0  0
   -2.0575    0.0060    0.2417 C   0  0  1  0  0  0  0  0  0  0  0  0
   -1.8162   -1.4281   -0.0769 C   0  0  0  0  0  0  0  0  0  0  0  0
   -0.7568   -0.4311   -0.4343 C   0  0  1  0  0  0  0  0  0  0  0  0
   -0.6069   -0.1950   -1.8497 N   0  0  0  0  0  0  0  0  0  0  0  0
    0.4689   -0.3616    0.4010 C   0  0  0  0  0  0  0  0  0  0  0  0
    0.3528   -0.5648    1.6326 O   0  0  0  0  0  0  0  0  0  0  0  0
    1.7426   -0.0788   -0.1361 N   0  0  0  0  0  0  0  0  0  0  0  0
    2.9435   -0.0095    0.6739 C   0  0  0  0  0  0  0  0  0  0  0  0
    4.0947    0.3064   -0.2127 C   0  0  0  0  0  0  0  0  0  0  0  0
    5.4150    0.4394    0.2992 N   0  0  0  0  0  0  0  0  0  0  0  0
    3.9504    0.4706   -1.4605 O   0  0  0  0  0  0  0  0  0  0  0  0
   -4.4063   -0.5940   -1.2118 H   0  0  0  0  0  0  0  0  0  0  0  0
   -4.9073    1.1274   -1.2980 H   0  0  0  0  0  0  0  0  0  0  0  0
   -4.7893    0.2890    0.3137 H   0  0  0  0  0  0  0  0  0  0  0  0
   -2.9885    1.8728   -0.0967 H   0  0  0  0  0  0  0  0  0  0  0  0
   -2.5091    0.9542   -1.6110 H   0  0  0  0  0  0  0  0  0  0  0  0
   -1.9764    0.2682    1.3244 H   0  0  0  0  0  0  0  0  0  0  0  0
   -1.6062   -2.1286    0.7593 H   0  0  0  0  0  0  0  0  0  0  0  0
   -2.3998   -1.9033   -0.8896 H   0  0  0  0  0  0  0  0  0  0  0  0
   -0.4491    0.7827   -2.1094 H   0  0  0  0  0  0  0  0  0  0  0  0
   -0.0198   -0.8901   -2.3261 H   0  0  0  0  0  0  0  0  0  0  0  0
    1.7788    0.0845   -1.1863 H   0  0  0  0  0  0  0  0  0  0  0  0
    2.8483    0.7814    1.4487 H   0  0  0  0  0  0  0  0  0  0  0  0
    3.1326   -0.9769    1.2017 H   0  0  0  0  0  0  0  0  0  0  0  0
    5.7085    1.2265    0.9027 H   0  0  0  0  0  0  0  0  0  0  0  0
    6.1326   -0.2854    0.0624 H   0  0  0  0  0  0  0  0  0  0  0  0
  1  2  1  0
  2  3  1  0
  3  4  1  0
  4  5  1  0
  5  6  1  6
  5  7  1  0
  7  8  2  0
  7  9  1  0
  9 10  1  0
 10 11  1  0
 11 12  1  0
 11 13  2  0
  5  3  1  0
  1 14  1  0
  1 15  1  0
  1 16  1  0
  2 17  1  0
  2 18  1  0
  3 19  1  1
  4 20  1  0
  4 21  1  0
  6 22  1  0
  6 23  1  0
  9 24  1  0
 10 25  1  0
 10 26  1  0
 12 27  1  0
 12 28  1  0
M  END
$$$$

     RDKit          3D

 28 28  0  0  0  0  0  0  0  0999 V2000
   -4.1147    0.2076    0.8825 C   0  0  0  0  0  0  0  0  0  0  0  0
   -2.9354    0.6120    0.0587 C   0  0  0  0  0  0  0  0  0  0  0  0
   -1.6211    0.1189    0.6084 C   0  0  1  0  0  0  0  0  0  0  0  0
   -1.3905   -1.3233    0.7636 C   0  0  0  0  0  0  0  0  0  0  0  0
   -0.6097   -0.5247   -0.2556 C   0  0  1  0  0  0  0  0  0  0  0  0
   -0.8322   -0.7487   -1.6601 N   0  0  0  0  0  0  0  0  0  0  0  0
    0.8317   -0.3401    0.0895 C   0  0  0  0  0  0  0  0  0  0  0  0
    1.1390   -0.1357    1.3051 O   0  0  0  0  0  0  0  0  0  0  0  0
    1.8680   -0.3838   -0.8820 N   0  0  0  0  0  0  0  0  0  0  0  0
    3.2314   -0.1952   -0.4589 C   0  0  0  0  0  0  0  0  0  0  0  0
    3.3934    1.1307    0.1762 C   0  0  0  0  0  0  0  0  0  0  0  0
    4.6834    1.4842    0.6551 N   0  0  0  0  0  0  0  0  0  0  0  0
    2.4313    1.9261    0.2941 O   0  0  0  0  0  0  0  0  0  0  0  0
   -4.6313   -0.7036    0.5129 H   0  0  0  0  0  0  0  0  0  0  0  0
   -3.8410    0.1078    1.9571 H   0  0  0  0  0  0  0  0  0  0  0  0
   -4.8910    1.0177    0.8513 H   0  0  0  0  0  0  0  0  0  0  0  0
   -3.0615    0.2583   -0.9934 H   0  0  0  0  0  0  0  0  0  0  0  0
   -2.9223    1.7215    0.0075 H   0  0  0  0  0  0  0  0  0  0  0  0
   -1.2104    0.7725    1.4073 H   0  0  0  0  0  0  0  0  0  0  0  0
   -2.0755   -2.0757    0.2930 H   0  0  0  0  0  0  0  0  0  0  0  0
   -0.8717   -1.7269    1.6478 H   0  0  0  0  0  0  0  0  0  0  0  0
   -0.1666   -1.4942   -1.9651 H   0  0  0  0  0  0  0  0  0  0  0  0
   -1.7872   -1.1091   -1.8732 H   0  0  0  0  0  0  0  0  0  0  0  0
    1.6416   -0.5489   -1.8767 H   0  0  0  0  0  0  0  0  0  0  0  0
    3.9482   -0.3489   -1.2831 H   0  0  0  0  0  0  0  0  0  0  0  0
    3.4718   -0.9641    0.3131 H   0  0  0  0  0  0  0  0  0  0  0  0
    5.3421    0.7829    1.0780 H   0  0  0  0  0  0  0  0  0  0  0  0
    4.9805    2.4827    0.5797 H   0  0  0  0  0  0  0  0  0  0  0  0
  1  2  1  0
  2  3  1  0
  3  4  1  0
  4  5  1  0
  5  6  1  6
  5  7  1  0
  7  8  2  0
  7  9  1  0
  9 10  1  0
 10 11  1  0
 11 12  1  0
 11 13  2  0
  5  3  1  0
  1 14  1  0
  1 15  1  0
  1 16  1  0
  2 17  1  0
  2 18  1  0
  3 19  1  1
  4 20  1  0
  4 21  1  0
  6 22  1  0
  6 23  1  0
  9 24  1  0
 10 25  1  0
 10 26  1  0
 12 27  1  0
 12 28  1  0
M  END
$$$$

     RDKit          3D

 28 28  0  0  0  0  0  0  0  0999 V2000
   -4.1012   -0.8122    0.0219 C   0  0  0  0  0  0  0  0  0  0  0  0
   -2.6201   -1.0006   -0.1842 C   0  0  0  0  0  0  0  0  0  0  0  0
   -1.8750    0.2461   -0.4412 C   0  0  1  0  0  0  0  0  0  0  0  0
   -1.7951    1.3883    0.4630 C   0  0  0  0  0  0  0  0  0  0  0  0
   -0.6449    0.4607    0.4522 C   0  0  1  0  0  0  0  0  0  0  0  0
   -0.5216   -0.3854    1.6218 N   0  0  0  0  0  0  0  0  0  0  0  0
    0.6020    0.7984   -0.2822 C   0  0  0  0  0  0  0  0  0  0  0  0
    0.5325    1.5291   -1.2997 O   0  0  0  0  0  0  0  0  0  0  0  0
    1.8869    0.3369    0.1041 N   0  0  0  0  0  0  0  0  0  0  0  0
    3.0814    0.6852   -0.6345 C   0  0  0  0  0  0  0  0  0  0  0  0
    4.3028    0.1081   -0.0720 C   0  0  0  0  0  0  0  0  0  0  0  0
    4.3653   -0.7110    1.0716 N   0  0  0  0  0  0  0  0  0  0  0  0
    5.3895    0.3643   -0.6581 O   0  0  0  0  0  0  0  0  0  0  0  0
   -4.3902    0.2378    0.1616 H   0  0  0  0  0  0  0  0  0  0  0  0
   -4.4875   -1.4468    0.8486 H   0  0  0  0  0  0  0  0  0  0  0  0
   -4.6154   -1.1709   -0.9009 H   0  0  0  0  0  0  0  0  0  0  0  0
   -2.4368   -1.7417   -1.0063 H   0  0  0  0  0  0  0  0  0  0  0  0
   -2.2352   -1.4864    0.7337 H   0  0  0  0  0  0  0  0  0  0  0  0
   -1.7379    0.4751   -1.5336 H   0  0  0  0  0  0  0  0  0  0  0  0
   -2.4226    1.4584    1.3949 H   0  0  0  0  0  0  0  0  0  0  0  0
   -1.6026    2.3941    0.0371 H   0  0  0  0  0  0  0  0  0  0  0  0
   -0.2876   -1.3604    1.4052 H   0  0  0  0  0  0  0  0  0  0  0  0
   -1.2820   -0.2515    2.3036 H   0  0  0  0  0  0  0  0  0  0  0  0
    1.9397   -0.2702    0.9505 H   0  0  0  0  0  0  0  0  0  0  0  0
    3.2009    1.8058   -0.5968 H   0  0  0  0  0  0  0  0  0  0  0  0
    2.9786    0.3676   -1.6924 H   0  0  0  0  0  0  0  0  0  0  0  0
    4.6307   -0.3062    1.9788 H   0  0  0  0  0  0  0  0  0  0  0  0
    4.1456   -1.7128    0.9986 H   0  0  0  0  0  0  0  0  0  0  0  0
  1  2  1  0
  2  3  1  0
  3  4  1  0
  4  5  1  0
  5  6  1  1
  5  7  1  0
  7  8  2  0
  7  9  1  0
  9 10  1  0
 10 11  1  0
 11 12  1  0
 11 13  2  0
  5  3  1  0
  1 14  1  0
  1 15  1  0
  1 16  1  0
  2 17  1  0
  2 18  1  0
  3 19  1  6
  4 20  1  0
  4 21  1  0
  6 22  1  0
  6 23  1  0
  9 24  1  0
 10 25  1  0
 10 26  1  0
 12 27  1  0
 12 28  1  0
M  END
$$$$

     RDKit          3D

 28 28  0  0  0  0  0  0  0  0999 V2000
    3.3039    1.0509    1.2485 C   0  0  0  0  0  0  0  0  0  0  0  0
    3.0302    0.4698   -0.1038 C   0  0  0  0  0  0  0  0  0  0  0  0
    1.5845    0.4423   -0.4777 C   0  0  1  0  0  0  0  0  0  0  0  0
    1.3198   -0.1510   -1.8581 C   0  0  0  0  0  0  0  0  0  0  0  0
    0.9315   -0.8800   -0.5543 C   0  0  1  0  0  0  0  0  0  0  0  0
    1.7552   -2.0301   -0.1969 N   0  0  0  0  0  0  0  0  0  0  0  0
   -0.5065   -1.0770   -0.4162 C   0  0  0  0  0  0  0  0  0  0  0  0
   -0.9588   -2.2490   -0.3685 O   0  0  0  0  0  0  0  0  0  0  0  0
   -1.4623   -0.0143   -0.3281 N   0  0  0  0  0  0  0  0  0  0  0  0
   -2.8545   -0.3135   -0.1928 C   0  0  0  0  0  0  0  0  0  0  0  0
   -3.6669    0.9284   -0.1193 C   0  0  0  0  0  0  0  0  0  0  0  0
   -5.0808    0.8833    0.0169 N   0  0  0  0  0  0  0  0  0  0  0  0
   -3.0703    2.0262   -0.1810 O   0  0  0  0  0  0  0  0  0  0  0  0
    3.2099    2.1605    1.1744 H   0  0  0  0  0  0  0  0  0  0  0  0
    4.3707    0.8603    1.4937 H   0  0  0  0  0  0  0  0  0  0  0  0
    2.7014    0.6139    2.0539 H   0  0  0  0  0  0  0  0  0  0  0  0
    3.4717   -0.5490   -0.1776 H   0  0  0  0  0  0  0  0  0  0  0  0
    3.5723    1.0795   -0.8576 H   0  0  0  0  0  0  0  0  0  0  0  0
    1.0128    1.3669   -0.2267 H   0  0  0  0  0  0  0  0  0  0  0  0
    0.5124    0.3387   -2.4380 H   0  0  0  0  0  0  0  0  0  0  0  0
    2.1260   -0.6231   -2.4086 H   0  0  0  0  0  0  0  0  0  0  0  0
    2.0553   -2.5440   -1.0366 H   0  0  0  0  0  0  0  0  0  0  0  0
    1.2429   -2.6661    0.4469 H   0  0  0  0  0  0  0  0  0  0  0  0
   -1.0579    0.9529   -0.3698 H   0  0  0  0  0  0  0  0  0  0  0  0
   -3.2256   -0.8833   -1.0868 H   0  0  0  0  0  0  0  0  0  0  0  0
   -3.0884   -0.9702    0.6796 H   0  0  0  0  0  0  0  0  0  0  0  0
   -5.6181   -0.0012    0.1164 H   0  0  0  0  0  0  0  0  0  0  0  0
   -5.6103    1.7782    0.0165 H   0  0  0  0  0  0  0  0  0  0  0  0
  1  2  1  0
  2  3  1  0
  3  4  1  0
  4  5  1  0
  5  6  1  1
  5  7  1  0
  7  8  2  0
  7  9  1  0
  9 10  1  0
 10 11  1  0
 11 12  1  0
 11 13  2  0
  5  3  1  0
  1 14  1  0
  1 15  1  0
  1 16  1  0
  2 17  1  0
  2 18  1  0
  3 19  1  6
  4 20  1  0
  4 21  1  0
  6 22  1  0
  6 23  1  0
  9 24  1  0
 10 25  1  0
 10 26  1  0
 12 27  1  0
 12 28  1  0
M  END
$$$$

     RDKit          3D

 28 28  0  0  0  0  0  0  0  0999 V2000
   -3.1953    0.7963    0.9001 C   0  0  0  0  0  0  0  0  0  0  0  0
   -3.1140   -0.6399    0.5035 C   0  0  0  0  0  0  0  0  0  0  0  0
   -1.9187   -1.0152   -0.3001 C   0  0  1  0  0  0  0  0  0  0  0  0
   -1.7831   -0.2883   -1.6073 C   0  0  0  0  0  0  0  0  0  0  0  0
   -0.7721   -0.0950   -0.5443 C   0  0  1  0  0  0  0  0  0  0  0  0
   -0.7443    1.0953    0.2652 N   0  0  0  0  0  0  0  0  0  0  0  0
    0.5619   -0.6990   -0.7989 C   0  0  0  0  0  0  0  0  0  0  0  0
    0.5953   -1.7423   -1.5012 O   0  0  0  0  0  0  0  0  0  0  0  0
    1.7405   -0.1121   -0.2656 N   0  0  0  0  0  0  0  0  0  0  0  0
    2.9969   -0.7682   -0.5645 C   0  0  0  0  0  0  0  0  0  0  0  0
    4.1495   -0.0604    0.0477 C   0  0  0  0  0  0  0  0  0  0  0  0
    4.0563    1.1025    0.8239 N   0  0  0  0  0  0  0  0  0  0  0  0
    5.2890   -0.5539   -0.1546 O   0  0  0  0  0  0  0  0  0  0  0  0
   -4.2558    0.9675    1.2473 H   0  0  0  0  0  0  0  0  0  0  0  0
   -2.5768    1.0727    1.7711 H   0  0  0  0  0  0  0  0  0  0  0  0
   -3.0800    1.4222    0.0158 H   0  0  0  0  0  0  0  0  0  0  0  0
   -3.2064   -1.3265    1.3954 H   0  0  0  0  0  0  0  0  0  0  0  0
   -4.0196   -0.8502   -0.1380 H   0  0  0  0  0  0  0  0  0  0  0  0
   -1.6484   -2.0925   -0.2434 H   0  0  0  0  0  0  0  0  0  0  0  0
   -1.5152   -0.9492   -2.4564 H   0  0  0  0  0  0  0  0  0  0  0  0
   -2.5209    0.4789   -1.8685 H   0  0  0  0  0  0  0  0  0  0  0  0
   -0.2587    0.9851    1.1581 H   0  0  0  0  0  0  0  0  0  0  0  0
   -0.5539    1.9624   -0.2571 H   0  0  0  0  0  0  0  0  0  0  0  0
    1.6597    0.7537    0.3110 H   0  0  0  0  0  0  0  0  0  0  0  0
    3.1350   -0.6916   -1.6743 H   0  0  0  0  0  0  0  0  0  0  0  0
    2.9366   -1.8287   -0.2871 H   0  0  0  0  0  0  0  0  0  0  0  0
    3.9659    2.0248    0.3617 H   0  0  0  0  0  0  0  0  0  0  0  0
    4.0765    1.0517    1.8480 H   0  0  0  0  0  0  0  0  0  0  0  0
  1  2  1  0
  2  3  1  0
  3  4  1  0
  4  5  1  0
  5  6  1  1
  5  7  1  0
  7  8  2  0
  7  9  1  0
  9 10  1  0
 10 11  1  0
 11 12  1  0
 11 13  2  0
  5  3  1  0
  1 14  1  0
  1 15  1  0
  1 16  1  0
  2 17  1  0
  2 18  1  0
  3 19  1  6
  4 20  1  0
  4 21  1  0
  6 22  1  0
  6 23  1  0
  9 24  1  0
 10 25  1  0
 10 26  1  0
 12 27  1  0
 12 28  1  0
M  END
$$$$

     RDKit          3D

 28 28  0  0  0  0  0  0  0  0999 V2000
   -3.4788    1.5408    0.3983 C   0  0  0  0  0  0  0  0  0  0  0  0
   -3.1934    0.2861   -0.3749 C   0  0  0  0  0  0  0  0  0  0  0  0
   -2.0827   -0.5289    0.2392 C   0  0  1  0  0  0  0  0  0  0  0  0
   -1.7568   -1.8049   -0.5039 C   0  0  0  0  0  0  0  0  0  0  0  0
   -0.8033   -0.6955   -0.5360 C   0  0  1  0  0  0  0  0  0  0  0  0
   -0.7206    0.1427   -1.7160 N   0  0  0  0  0  0  0  0  0  0  0  0
    0.4729   -0.8485    0.2226 C   0  0  0  0  0  0  0  0  0  0  0  0
    0.5238   -1.5521    1.2638 O   0  0  0  0  0  0  0  0  0  0  0  0
    1.6585   -0.2024   -0.2152 N   0  0  0  0  0  0  0  0  0  0  0  0
    2.9227   -0.3050    0.4653 C   0  0  0  0  0  0  0  0  0  0  0  0
    3.9397    0.4806   -0.2457 C   0  0  0  0  0  0  0  0  0  0  0  0
    5.2853    0.5943    0.1557 N   0  0  0  0  0  0  0  0  0  0  0  0
    3.6004    1.1051   -1.2935 O   0  0  0  0  0  0  0  0  0  0  0  0
   -3.2598    2.4677   -0.1965 H   0  0  0  0  0  0  0  0  0  0  0  0
   -2.8734    1.5548    1.3374 H   0  0  0  0  0  0  0  0  0  0  0  0
   -4.5494    1.5898    0.6638 H   0  0  0  0  0  0  0  0  0  0  0  0
   -4.1019   -0.3740   -0.3715 H   0  0  0  0  0  0  0  0  0  0  0  0
   -2.9772    0.5784   -1.4314 H   0  0  0  0  0  0  0  0  0  0  0  0
   -2.0273   -0.5224    1.3359 H   0  0  0  0  0  0  0  0  0  0  0  0
   -1.5110   -2.6915    0.1166 H   0  0  0  0  0  0  0  0  0  0  0  0
   -2.3101   -2.0364   -1.4306 H   0  0  0  0  0  0  0  0  0  0  0  0
   -1.3623   -0.1183   -2.4652 H   0  0  0  0  0  0  0  0  0  0  0  0
   -0.6285    1.1430   -1.5093 H   0  0  0  0  0  0  0  0  0  0  0  0
    1.5841    0.3726   -1.0800 H   0  0  0  0  0  0  0  0  0  0  0  0
    3.2377   -1.3856    0.3962 H   0  0  0  0  0  0  0  0  0  0  0  0
    2.8543   -0.0549    1.5422 H   0  0  0  0  0  0  0  0  0  0  0  0
    5.6092    1.4388    0.6376 H   0  0  0  0  0  0  0  0  0  0  0  0
    5.9478   -0.1744   -0.0355 H   0  0  0  0  0  0  0  0  0  0  0  0
  1  2  1  0
  2  3  1  0
  3  4  1  0
  4  5  1  0
  5  6  1  6
  5  7  1  0
  7  8  2  0
  7  9  1  0
  9 10  1  0
 10 11  1  0
 11 12  1  0
 11 13  2  0
  5  3  1  0
  1 14  1  0
  1 15  1  0
  1 16  1  0
  2 17  1  0
  2 18  1  0
  3 19  1  1
  4 20  1  0
  4 21  1  0
  6 22  1  0
  6 23  1  0
  9 24  1  0
 10 25  1  0
 10 26  1  0
 12 27  1  0
 12 28  1  0
M  END
$$$$

     RDKit          3D

 28 28  0  0  0  0  0  0  0  0999 V2000
   -3.5549    0.7733    0.3862 C   0  0  0  0  0  0  0  0  0  0  0  0
   -3.3670   -0.7033    0.2222 C   0  0  0  0  0  0  0  0  0  0  0  0
   -2.0266   -1.0873   -0.2989 C   0  0  1  0  0  0  0  0  0  0  0  0
   -1.7027   -0.4963   -1.6831 C   0  0  0  0  0  0  0  0  0  0  0  0
   -0.8988   -0.1415   -0.4445 C   0  0  1  0  0  0  0  0  0  0  0  0
   -0.9748    1.2036    0.0644 N   0  0  0  0  0  0  0  0  0  0  0  0
    0.4740   -0.7041   -0.4809 C   0  0  0  0  0  0  0  0  0  0  0  0
    0.6297   -1.8676   -0.9093 O   0  0  0  0  0  0  0  0  0  0  0  0
    1.5873    0.0438   -0.0459 N   0  0  0  0  0  0  0  0  0  0  0  0
    2.9473   -0.4595   -0.0613 C   0  0  0  0  0  0  0  0  0  0  0  0
    3.8639    0.5765    0.4590 C   0  0  0  0  0  0  0  0  0  0  0  0
    5.2680    0.3803    0.5680 N   0  0  0  0  0  0  0  0  0  0  0  0
    3.4020    1.6742    0.8217 O   0  0  0  0  0  0  0  0  0  0  0  0
   -4.6496    0.9987    0.5432 H   0  0  0  0  0  0  0  0  0  0  0  0
   -3.2709    1.3379   -0.5342 H   0  0  0  0  0  0  0  0  0  0  0  0
   -3.0386    1.2110    1.2466 H   0  0  0  0  0  0  0  0  0  0  0  0
   -3.5148   -1.1913    1.2075 H   0  0  0  0  0  0  0  0  0  0  0  0
   -4.1991   -1.0840   -0.4280 H   0  0  0  0  0  0  0  0  0  0  0  0
   -1.7328   -2.1635   -0.1625 H   0  0  0  0  0  0  0  0  0  0  0  0
   -2.3413    0.3199   -2.0505 H   0  0  0  0  0  0  0  0  0  0  0  0
   -1.2872   -1.1706   -2.4367 H   0  0  0  0  0  0  0  0  0  0  0  0
   -0.3336    1.8339   -0.4725 H   0  0  0  0  0  0  0  0  0  0  0  0
   -0.5672    1.1791    1.0426 H   0  0  0  0  0  0  0  0  0  0  0  0
    1.3752    1.0260    0.3051 H   0  0  0  0  0  0  0  0  0  0  0  0
    3.2835   -0.6685   -1.1191 H   0  0  0  0  0  0  0  0  0  0  0  0
    3.0496   -1.4256    0.4724 H   0  0  0  0  0  0  0  0  0  0  0  0
    5.6520    0.2161    1.5263 H   0  0  0  0  0  0  0  0  0  0  0  0
    5.9275    0.3889   -0.2275 H   0  0  0  0  0  0  0  0  0  0  0  0
  1  2  1  0
  2  3  1  0
  3  4  1  0
  4  5  1  0
  5  6  1  1
  5  7  1  0
  7  8  2  0
  7  9  1  0
  9 10  1  0
 10 11  1  0
 11 12  1  0
 11 13  2  0
  5  3  1  0
  1 14  1  0
  1 15  1  0
  1 16  1  0
  2 17  1  0
  2 18  1  0
  3 19  1  6
  4 20  1  0
  4 21  1  0
  6 22  1  0
  6 23  1  0
  9 24  1  0
 10 25  1  0
 10 26  1  0
 12 27  1  0
 12 28  1  0
M  END
$$$$
