
     RDKit          3D

 29 29  0  0  0  0  0  0  0  0999 V2000
    3.4788    0.0066   -1.2922 C   0  0  0  0  0  0  0  0  0  0  0  0
    2.3271    0.2782   -0.5040 O   0  0  0  0  0  0  0  0  0  0  0  0
    2.4044    0.4072    0.8626 C   0  0  0  0  0  0  0  0  0  0  0  0
    3.5242    0.2809    1.4162 O   0  0  0  0  0  0  0  0  0  0  0  0
    1.2338    0.6874    1.7055 C   0  0  0  0  0  0  0  0  0  0  0  0
   -0.0337    0.7215    0.9633 N   0  0  0  0  0  0  0  0  0  0  0  0
   -0.0847    1.8181    0.0642 C   0  0  0  0  0  0  0  0  0  0  0  0
   -0.3568   -0.5575    0.4921 C   0  0  0  0  0  0  0  0  0  0  0  0
   -1.6151   -0.8369   -0.1916 C   0  0  0  0  0  0  0  0  0  0  0  0
   -1.7160   -2.2570   -0.5806 N   0  0  0  0  0  0  0  0  0  0  0  0
   -2.1661   -0.0173   -1.2804 C   0  0  0  0  0  0  0  0  0  0  0  0
   -3.4549   -0.4787   -0.8709 O   0  0  0  0  0  0  0  0  0  0  0  0
   -2.9192   -0.4296    0.4440 C   0  0  0  0  0  0  0  0  0  0  0  0
    4.3179   -0.4050   -0.6561 H   0  0  0  0  0  0  0  0  0  0  0  0
    3.2882   -0.6316   -2.1545 H   0  0  0  0  0  0  0  0  0  0  0  0
    3.8847    0.9785   -1.6843 H   0  0  0  0  0  0  0  0  0  0  0  0
    1.1373   -0.0790    2.5304 H   0  0  0  0  0  0  0  0  0  0  0  0
    1.3658    1.6568    2.2556 H   0  0  0  0  0  0  0  0  0  0  0  0
    0.7323    2.5680    0.2421 H   0  0  0  0  0  0  0  0  0  0  0  0
   -1.0091    2.4201    0.2101 H   0  0  0  0  0  0  0  0  0  0  0  0
    0.0884    1.4569   -0.9529 H   0  0  0  0  0  0  0  0  0  0  0  0
   -0.3251   -1.2623    1.3968 H   0  0  0  0  0  0  0  0  0  0  0  0
    0.4750   -1.0071   -0.1454 H   0  0  0  0  0  0  0  0  0  0  0  0
   -1.4505   -2.8674    0.2093 H   0  0  0  0  0  0  0  0  0  0  0  0
   -2.6937   -2.3878   -0.9322 H   0  0  0  0  0  0  0  0  0  0  0  0
   -2.2074    1.0624   -1.2437 H   0  0  0  0  0  0  0  0  0  0  0  0
   -1.9416   -0.4448   -2.3064 H   0  0  0  0  0  0  0  0  0  0  0  0
   -2.9581    0.5800    0.8708 H   0  0  0  0  0  0  0  0  0  0  0  0
   -3.3259   -1.2607    1.0483 H   0  0  0  0  0  0  0  0  0  0  0  0
  1  2  1  0
  2  3  1  0
  3  4  2  0
  3  5  1  0
  5  6  1  0
  6  7  1  0
  6  8  1  0
  8  9  1  0
  9 10  1  0
  9 11  1  0
 11 12  1  0
 12 13  1  0
 13  9  1  0
  1 14  1  0
  1 15  1  0
  1 16  1  0
  5 17  1  0
  5 18  1  0
  7 19  1  0
  7 20  1  0
  7 21  1  0
  8 22  1  0
  8 23  1  0
 10 24  1  0
 10 25  1  0
 11 26  1  0
 11 27  1  0
 13 28  1  0
 13 29  1  0
M  END
$$$$

     RDKit          3D

 29 29  0  0  0  0  0  0  0  0999 V2000
    4.8859    0.0161    0.8388 C   0  0  0  0  0  0  0  0  0  0  0  0
    3.6867    0.6785    0.5456 O   0  0  0  0  0  0  0  0  0  0  0  0
    2.4834    0.0706    0.2605 C   0  0  0  0  0  0  0  0  0  0  0  0
    2.4138   -1.1945    0.2541 O   0  0  0  0  0  0  0  0  0  0  0  0
    1.2715    0.8422   -0.0362 C   0  0  0  0  0  0  0  0  0  0  0  0
    0.1071   -0.0361   -0.1444 N   0  0  0  0  0  0  0  0  0  0  0  0
    0.3351   -0.7964   -1.3780 C   0  0  0  0  0  0  0  0  0  0  0  0
   -1.0901    0.7231   -0.2936 C   0  0  0  0  0  0  0  0  0  0  0  0
   -2.3626    0.0014   -0.0855 C   0  0  0  0  0  0  0  0  0  0  0  0
   -3.5240    0.8382   -0.2636 N   0  0  0  0  0  0  0  0  0  0  0  0
   -2.5820   -1.4035   -0.4466 C   0  0  0  0  0  0  0  0  0  0  0  0
   -1.7280   -1.7619    0.6109 O   0  0  0  0  0  0  0  0  0  0  0  0
   -2.3668   -0.7023    1.3055 C   0  0  0  0  0  0  0  0  0  0  0  0
    5.7089    0.2828    0.1600 H   0  0  0  0  0  0  0  0  0  0  0  0
    5.2425    0.3041    1.8654 H   0  0  0  0  0  0  0  0  0  0  0  0
    4.7379   -1.0747    0.8555 H   0  0  0  0  0  0  0  0  0  0  0  0
    1.3517    1.3382   -1.0237 H   0  0  0  0  0  0  0  0  0  0  0  0
    1.0775    1.6512    0.6950 H   0  0  0  0  0  0  0  0  0  0  0  0
    0.4469   -1.8667   -1.1478 H   0  0  0  0  0  0  0  0  0  0  0  0
    1.2345   -0.3836   -1.9336 H   0  0  0  0  0  0  0  0  0  0  0  0
   -0.4916   -0.6953   -2.1064 H   0  0  0  0  0  0  0  0  0  0  0  0
   -1.1119    1.3173   -1.2531 H   0  0  0  0  0  0  0  0  0  0  0  0
   -1.0534    1.5347    0.4969 H   0  0  0  0  0  0  0  0  0  0  0  0
   -4.2332    0.6760    0.4855 H   0  0  0  0  0  0  0  0  0  0  0  0
   -3.2968    1.8511   -0.3838 H   0  0  0  0  0  0  0  0  0  0  0  0
   -2.3717   -1.8048   -1.4263 H   0  0  0  0  0  0  0  0  0  0  0  0
   -3.6196   -1.7164   -0.0969 H   0  0  0  0  0  0  0  0  0  0  0  0
   -1.7561   -0.2118    2.0643 H   0  0  0  0  0  0  0  0  0  0  0  0
   -3.3953   -0.9704    1.5815 H   0  0  0  0  0  0  0  0  0  0  0  0
  1  2  1  0
  2  3  1  0
  3  4  2  0
  3  5  1  0
  5  6  1  0
  6  7  1  0
  6  8  1  0
  8  9  1  0
  9 10  1  0
  9 11  1  0
 11 12  1  0
 12 13  1  0
 13  9  1  0
  1 14  1  0
  1 15  1  0
  1 16  1  0
  5 17  1  0
  5 18  1  0
  7 19  1  0
  7 20  1  0
  7 21  1  0
  8 22  1  0
  8 23  1  0
 10 24  1  0
 10 25  1  0
 11 26  1  0
 11 27  1  0
 13 28  1  0
 13 29  1  0
M  END
$$$$

     RDKit          3D

 29 29  0  0  0  0  0  0  0  0999 V2000
    4.6207   -0.5978   -1.0523 C   0  0  0  0  0  0  0  0  0  0  0  0
    3.6029   -0.6527   -0.1208 O   0  0  0  0  0  0  0  0  0  0  0  0
    2.3080   -0.1596   -0.2514 C   0  0  0  0  0  0  0  0  0  0  0  0
    1.9835    0.4064   -1.3070 O   0  0  0  0  0  0  0  0  0  0  0  0
    1.4312   -0.3662    0.9205 C   0  0  0  0  0  0  0  0  0  0  0  0
    0.1118    0.1717    0.8235 N   0  0  0  0  0  0  0  0  0  0  0  0
    0.1809    1.5835    0.7930 C   0  0  0  0  0  0  0  0  0  0  0  0
   -0.7144   -0.5491   -0.0243 C   0  0  0  0  0  0  0  0  0  0  0  0
   -2.1491   -0.2395   -0.1451 C   0  0  0  0  0  0  0  0  0  0  0  0
   -2.7935   -1.1569   -1.0818 N   0  0  0  0  0  0  0  0  0  0  0  0
   -2.9313   -0.1351    1.1514 C   0  0  0  0  0  0  0  0  0  0  0  0
   -3.8453    0.6511    0.4271 O   0  0  0  0  0  0  0  0  0  0  0  0
   -2.6915    1.1170   -0.2849 C   0  0  0  0  0  0  0  0  0  0  0  0
    4.5909   -1.3679   -1.8538 H   0  0  0  0  0  0  0  0  0  0  0  0
    5.5744   -0.8390   -0.4864 H   0  0  0  0  0  0  0  0  0  0  0  0
    4.8187    0.4075   -1.4627 H   0  0  0  0  0  0  0  0  0  0  0  0
    1.3789   -1.5016    1.0139 H   0  0  0  0  0  0  0  0  0  0  0  0
    1.9630    0.0275    1.8282 H   0  0  0  0  0  0  0  0  0  0  0  0
    1.2323    1.9621    1.0378 H   0  0  0  0  0  0  0  0  0  0  0  0
   -0.0404    1.9311   -0.2208 H   0  0  0  0  0  0  0  0  0  0  0  0
   -0.4192    2.0664    1.6066 H   0  0  0  0  0  0  0  0  0  0  0  0
   -0.2323   -0.6239   -1.0393 H   0  0  0  0  0  0  0  0  0  0  0  0
   -0.6714   -1.6487    0.3119 H   0  0  0  0  0  0  0  0  0  0  0  0
   -2.3982   -2.0912   -0.8953 H   0  0  0  0  0  0  0  0  0  0  0  0
   -3.8164   -1.0824   -0.8712 H   0  0  0  0  0  0  0  0  0  0  0  0
   -2.4567    0.4643    1.9284 H   0  0  0  0  0  0  0  0  0  0  0  0
   -3.2963   -1.1391    1.4564 H   0  0  0  0  0  0  0  0  0  0  0  0
   -2.3137    1.9693    0.2638 H   0  0  0  0  0  0  0  0  0  0  0  0
   -3.0276    1.3928   -1.3179 H   0  0  0  0  0  0  0  0  0  0  0  0
  1  2  1  0
  2  3  1  0
  3  4  2  0
  3  5  1  0
  5  6  1  0
  6  7  1  0
  6  8  1  0
  8  9  1  0
  9 10  1  0
  9 11  1  0
 11 12  1  0
 12 13  1  0
 13  9  1  0
  1 14  1  0
  1 15  1  0
  1 16  1  0
  5 17  1  0
  5 18  1  0
  7 19  1  0
  7 20  1  0
  7 21  1  0
  8 22  1  0
  8 23  1  0
 10 24  1  0
 10 25  1  0
 11 26  1  0
 11 27  1  0
 13 28  1  0
 13 29  1  0
M  END
$$$$

     RDKit          3D

 29 29  0  0  0  0  0  0  0  0999 V2000
    4.4267    1.2317    0.4606 C   0  0  0  0  0  0  0  0  0  0  0  0
    3.5983    0.0667    0.3422 O   0  0  0  0  0  0  0  0  0  0  0  0
    2.2094    0.1697    0.5096 C   0  0  0  0  0  0  0  0  0  0  0  0
    1.7765    1.3183    0.7600 O   0  0  0  0  0  0  0  0  0  0  0  0
    1.3883   -1.0386    0.3833 C   0  0  0  0  0  0  0  0  0  0  0  0
   -0.0407   -0.8073    0.4818 N   0  0  0  0  0  0  0  0  0  0  0  0
   -0.6210   -2.1722    0.4201 C   0  0  0  0  0  0  0  0  0  0  0  0
   -0.3957   -0.1022   -0.7462 C   0  0  0  0  0  0  0  0  0  0  0  0
   -1.8580    0.2189   -0.8176 C   0  0  0  0  0  0  0  0  0  0  0  0
   -2.7725   -0.8819   -0.7821 N   0  0  0  0  0  0  0  0  0  0  0  0
   -2.1291    1.1021   -2.0232 C   0  0  0  0  0  0  0  0  0  0  0  0
   -2.0035    2.2615   -1.2520 O   0  0  0  0  0  0  0  0  0  0  0  0
   -2.2931    1.4788   -0.1308 C   0  0  0  0  0  0  0  0  0  0  0  0
    4.7969    1.5015   -0.5474 H   0  0  0  0  0  0  0  0  0  0  0  0
    5.3110    0.9934    1.0761 H   0  0  0  0  0  0  0  0  0  0  0  0
    3.8157    2.0641    0.8806 H   0  0  0  0  0  0  0  0  0  0  0  0
    1.7033   -1.8508    1.0868 H   0  0  0  0  0  0  0  0  0  0  0  0
    1.5369   -1.4450   -0.6634 H   0  0  0  0  0  0  0  0  0  0  0  0
    0.0739   -2.8692    0.9292 H   0  0  0  0  0  0  0  0  0  0  0  0
   -1.6013   -2.1878    0.9237 H   0  0  0  0  0  0  0  0  0  0  0  0
   -0.6714   -2.4567   -0.6505 H   0  0  0  0  0  0  0  0  0  0  0  0
   -0.1635   -0.7815   -1.5867 H   0  0  0  0  0  0  0  0  0  0  0  0
    0.1662    0.8378   -0.7821 H   0  0  0  0  0  0  0  0  0  0  0  0
   -3.6715   -0.6715   -0.3209 H   0  0  0  0  0  0  0  0  0  0  0  0
   -2.8874   -1.2243   -1.7699 H   0  0  0  0  0  0  0  0  0  0  0  0
   -1.3634    1.0466   -2.8203 H   0  0  0  0  0  0  0  0  0  0  0  0
   -3.1458    0.9668   -2.4357 H   0  0  0  0  0  0  0  0  0  0  0  0
   -1.7741    1.7595    0.7868 H   0  0  0  0  0  0  0  0  0  0  0  0
   -3.4114    1.4716   -0.0008 H   0  0  0  0  0  0  0  0  0  0  0  0
  1  2  1  0
  2  3  1  0
  3  4  2  0
  3  5  1  0
  5  6  1  0
  6  7  1  0
  6  8  1  0
  8  9  1  0
  9 10  1  0
  9 11  1  0
 11 12  1  0
 12 13  1  0
 13  9  1  0
  1 14  1  0
  1 15  1  0
  1 16  1  0
  5 17  1  0
  5 18  1  0
  7 19  1  0
  7 20  1  0
  7 21  1  0
  8 22  1  0
  8 23  1  0
 10 24  1  0
 10 25  1  0
 11 26  1  0
 11 27  1  0
 13 28  1  0
 13 29  1  0
M  END
$$$$

     RDKit          3D

 29 29  0  0  0  0  0  0  0  0999 V2000
    3.9550    0.6099   -0.8993 C   0  0  0  0  0  0  0  0  0  0  0  0
    2.7049    0.2252   -0.3936 O   0  0  0  0  0  0  0  0  0  0  0  0
    2.4901   -1.0894   -0.0102 C   0  0  0  0  0  0  0  0  0  0  0  0
    3.4460   -1.8903   -0.1365 O   0  0  0  0  0  0  0  0  0  0  0  0
    1.1821   -1.5641    0.5348 C   0  0  0  0  0  0  0  0  0  0  0  0
    0.2177   -0.5359    0.6465 N   0  0  0  0  0  0  0  0  0  0  0  0
    0.4766    0.4164    1.5976 C   0  0  0  0  0  0  0  0  0  0  0  0
   -0.9288   -0.7232   -0.0727 C   0  0  0  0  0  0  0  0  0  0  0  0
   -2.0022    0.3095   -0.0133 C   0  0  0  0  0  0  0  0  0  0  0  0
   -2.5397    0.5511    1.2804 N   0  0  0  0  0  0  0  0  0  0  0  0
   -3.0617    0.0152   -1.0550 C   0  0  0  0  0  0  0  0  0  0  0  0
   -2.3515    0.7934   -1.9785 O   0  0  0  0  0  0  0  0  0  0  0  0
   -1.8672    1.5103   -0.8871 C   0  0  0  0  0  0  0  0  0  0  0  0
    3.8915    1.4000   -1.6642 H   0  0  0  0  0  0  0  0  0  0  0  0
    4.5370   -0.2455   -1.3272 H   0  0  0  0  0  0  0  0  0  0  0  0
    4.5734    0.9712   -0.0387 H   0  0  0  0  0  0  0  0  0  0  0  0
    1.4047   -2.0770    1.5002 H   0  0  0  0  0  0  0  0  0  0  0  0
    0.8678   -2.3995   -0.1547 H   0  0  0  0  0  0  0  0  0  0  0  0
    0.7786    1.4282    1.2567 H   0  0  0  0  0  0  0  0  0  0  0  0
    1.3623    0.0825    2.2225 H   0  0  0  0  0  0  0  0  0  0  0  0
   -0.3426    0.4832    2.3739 H   0  0  0  0  0  0  0  0  0  0  0  0
   -0.6908   -0.9832   -1.1481 H   0  0  0  0  0  0  0  0  0  0  0  0
   -1.4235   -1.6827    0.2818 H   0  0  0  0  0  0  0  0  0  0  0  0
   -3.4483    1.0637    1.2641 H   0  0  0  0  0  0  0  0  0  0  0  0
   -2.5577   -0.2832    1.8793 H   0  0  0  0  0  0  0  0  0  0  0  0
   -3.0987   -1.0206   -1.4231 H   0  0  0  0  0  0  0  0  0  0  0  0
   -4.0730    0.3868   -0.8246 H   0  0  0  0  0  0  0  0  0  0  0  0
   -2.6137    2.2789   -0.5982 H   0  0  0  0  0  0  0  0  0  0  0  0
   -0.8883    1.9690   -0.9882 H   0  0  0  0  0  0  0  0  0  0  0  0
  1  2  1  0
  2  3  1  0
  3  4  2  0
  3  5  1  0
  5  6  1  0
  6  7  1  0
  6  8  1  0
  8  9  1  0
  9 10  1  0
  9 11  1  0
 11 12  1  0
 12 13  1  0
 13  9  1  0
  1 14  1  0
  1 15  1  0
  1 16  1  0
  5 17  1  0
  5 18  1  0
  7 19  1  0
  7 20  1  0
  7 21  1  0
  8 22  1  0
  8 23  1  0
 10 24  1  0
 10 25  1  0
 11 26  1  0
 11 27  1  0
 13 28  1  0
 13 29  1  0
M  END
$$$$

     RDKit          3D

 29 29  0  0  0  0  0  0  0  0999 V2000
    5.1527    0.2029    0.2510 C   0  0  0  0  0  0  0  0  0  0  0  0
    3.8713    0.7452    0.4012 O   0  0  0  0  0  0  0  0  0  0  0  0
    2.6831    0.0852    0.1766 C   0  0  0  0  0  0  0  0  0  0  0  0
    2.7346   -1.1153   -0.1974 O   0  0  0  0  0  0  0  0  0  0  0  0
    1.3591    0.7119    0.3532 C   0  0  0  0  0  0  0  0  0  0  0  0
    0.2546   -0.1805    0.0681 N   0  0  0  0  0  0  0  0  0  0  0  0
    0.1603   -0.5027   -1.3260 C   0  0  0  0  0  0  0  0  0  0  0  0
   -0.9397    0.4805    0.4958 C   0  0  0  0  0  0  0  0  0  0  0  0
   -2.2020   -0.2934    0.3877 C   0  0  0  0  0  0  0  0  0  0  0  0
   -2.2506   -1.5304    1.1449 N   0  0  0  0  0  0  0  0  0  0  0  0
   -3.3812    0.6129    0.7100 C   0  0  0  0  0  0  0  0  0  0  0  0
   -4.0864    0.1040   -0.3768 O   0  0  0  0  0  0  0  0  0  0  0  0
   -2.8861   -0.3297   -0.9479 C   0  0  0  0  0  0  0  0  0  0  0  0
    5.3697   -0.6532    0.9146 H   0  0  0  0  0  0  0  0  0  0  0  0
    5.8676    1.0250    0.5484 H   0  0  0  0  0  0  0  0  0  0  0  0
    5.4273   -0.0585   -0.7822 H   0  0  0  0  0  0  0  0  0  0  0  0
    1.2607    1.5699   -0.3374 H   0  0  0  0  0  0  0  0  0  0  0  0
    1.2350    1.1198    1.3814 H   0  0  0  0  0  0  0  0  0  0  0  0
    1.0806   -0.8796   -1.7897 H   0  0  0  0  0  0  0  0  0  0  0  0
   -0.5923   -1.3053   -1.4493 H   0  0  0  0  0  0  0  0  0  0  0  0
   -0.1936    0.3896   -1.9170 H   0  0  0  0  0  0  0  0  0  0  0  0
   -1.0341    1.4250   -0.1082 H   0  0  0  0  0  0  0  0  0  0  0  0
   -0.7438    0.8504    1.5447 H   0  0  0  0  0  0  0  0  0  0  0  0
   -2.9153   -1.3951    1.9663 H   0  0  0  0  0  0  0  0  0  0  0  0
   -2.7075   -2.2446    0.5366 H   0  0  0  0  0  0  0  0  0  0  0  0
   -3.8556    0.4183    1.7003 H   0  0  0  0  0  0  0  0  0  0  0  0
   -3.1459    1.7060    0.6013 H   0  0  0  0  0  0  0  0  0  0  0  0
   -2.5574    0.4116   -1.6788 H   0  0  0  0  0  0  0  0  0  0  0  0
   -2.9652   -1.3701   -1.3346 H   0  0  0  0  0  0  0  0  0  0  0  0
  1  2  1  0
  2  3  1  0
  3  4  2  0
  3  5  1  0
  5  6  1  0
  6  7  1  0
  6  8  1  0
  8  9  1  0
  9 10  1  0
  9 11  1  0
 11 12  1  0
 12 13  1  0
 13  9  1  0
  1 14  1  0
  1 15  1  0
  1 16  1  0
  5 17  1  0
  5 18  1  0
  7 19  1  0
  7 20  1  0
  7 21  1  0
  8 22  1  0
  8 23  1  0
 10 24  1  0
 10 25  1  0
 11 26  1  0
 11 27  1  0
 13 28  1  0
 13 29  1  0
M  END
$$$$

     RDKit          3D

 29 29  0  0  0  0  0  0  0  0999 V2000
    4.9681   -0.1641   -0.8488 C   0  0  0  0  0  0  0  0  0  0  0  0
    3.8728    0.4688   -0.1616 O   0  0  0  0  0  0  0  0  0  0  0  0
    2.5685    0.0591   -0.3577 C   0  0  0  0  0  0  0  0  0  0  0  0
    2.4054   -0.9064   -1.1804 O   0  0  0  0  0  0  0  0  0  0  0  0
    1.4069    0.6654    0.3166 C   0  0  0  0  0  0  0  0  0  0  0  0
    0.1581   -0.0405   -0.0255 N   0  0  0  0  0  0  0  0  0  0  0  0
    0.2086   -1.3176    0.5882 C   0  0  0  0  0  0  0  0  0  0  0  0
   -0.9024    0.8081    0.3337 C   0  0  0  0  0  0  0  0  0  0  0  0
   -2.2937    0.4409    0.0533 C   0  0  0  0  0  0  0  0  0  0  0  0
   -3.1854    1.5271    0.5237 N   0  0  0  0  0  0  0  0  0  0  0  0
   -2.6507    0.0207   -1.3436 C   0  0  0  0  0  0  0  0  0  0  0  0
   -2.8251   -1.2943   -0.8469 O   0  0  0  0  0  0  0  0  0  0  0  0
   -2.8638   -0.8553    0.4969 C   0  0  0  0  0  0  0  0  0  0  0  0
    5.6660    0.6552   -1.1397 H   0  0  0  0  0  0  0  0  0  0  0  0
    5.4961   -0.7894   -0.1127 H   0  0  0  0  0  0  0  0  0  0  0  0
    4.6012   -0.7371   -1.7200 H   0  0  0  0  0  0  0  0  0  0  0  0
    1.5290    0.6935    1.4324 H   0  0  0  0  0  0  0  0  0  0  0  0
    1.3302    1.7278    0.0033 H   0  0  0  0  0  0  0  0  0  0  0  0
    1.2552   -1.7374    0.6241 H   0  0  0  0  0  0  0  0  0  0  0  0
   -0.3711   -2.1081    0.0778 H   0  0  0  0  0  0  0  0  0  0  0  0
   -0.0504   -1.2085    1.6779 H   0  0  0  0  0  0  0  0  0  0  0  0
   -0.7126    1.8030   -0.1753 H   0  0  0  0  0  0  0  0  0  0  0  0
   -0.8443    1.0764    1.4315 H   0  0  0  0  0  0  0  0  0  0  0  0
   -4.1543    1.1718    0.6183 H   0  0  0  0  0  0  0  0  0  0  0  0
   -2.8552    1.7560    1.4849 H   0  0  0  0  0  0  0  0  0  0  0  0
   -3.6106    0.4241   -1.7210 H   0  0  0  0  0  0  0  0  0  0  0  0
   -1.8807    0.1105   -2.1092 H   0  0  0  0  0  0  0  0  0  0  0  0
   -3.9409   -0.7969    0.8552 H   0  0  0  0  0  0  0  0  0  0  0  0
   -2.3248   -1.4529    1.2246 H   0  0  0  0  0  0  0  0  0  0  0  0
  1  2  1  0
  2  3  1  0
  3  4  2  0
  3  5  1  0
  5  6  1  0
  6  7  1  0
  6  8  1  0
  8  9  1  0
  9 10  1  0
  9 11  1  0
 11 12  1  0
 12 13  1  0
 13  9  1  0
  1 14  1  0
  1 15  1  0
  1 16  1  0
  5 17  1  0
  5 18  1  0
  7 19  1  0
  7 20  1  0
  7 21  1  0
  8 22  1  0
  8 23  1  0
 10 24  1  0
 10 25  1  0
 11 26  1  0
 11 27  1  0
 13 28  1  0
 13 29  1  0
M  END
$$$$

     RDKit          3D

 29 29  0  0  0  0  0  0  0  0999 V2000
    4.4290    1.0501    0.0179 C   0  0  0  0  0  0  0  0  0  0  0  0
    3.5056    0.1781   -0.6039 O   0  0  0  0  0  0  0  0  0  0  0  0
    2.2435   -0.0208   -0.0814 C   0  0  0  0  0  0  0  0  0  0  0  0
    1.9664    0.6226    0.9827 O   0  0  0  0  0  0  0  0  0  0  0  0
    1.3226   -0.9326   -0.7596 C   0  0  0  0  0  0  0  0  0  0  0  0
   -0.0020   -1.0019   -0.1275 N   0  0  0  0  0  0  0  0  0  0  0  0
    0.0765   -1.6013    1.1448 C   0  0  0  0  0  0  0  0  0  0  0  0
   -0.6568    0.2097   -0.3326 C   0  0  0  0  0  0  0  0  0  0  0  0
   -2.0340    0.4292    0.1272 C   0  0  0  0  0  0  0  0  0  0  0  0
   -2.4800    1.7980   -0.2364 N   0  0  0  0  0  0  0  0  0  0  0  0
   -3.0929   -0.5425   -0.2557 C   0  0  0  0  0  0  0  0  0  0  0  0
   -3.2436   -0.9746    1.0793 O   0  0  0  0  0  0  0  0  0  0  0  0
   -2.4533    0.0871    1.5079 C   0  0  0  0  0  0  0  0  0  0  0  0
    5.3550    0.5061    0.2470 H   0  0  0  0  0  0  0  0  0  0  0  0
    4.6644    1.8757   -0.6834 H   0  0  0  0  0  0  0  0  0  0  0  0
    3.9790    1.5106    0.9174 H   0  0  0  0  0  0  0  0  0  0  0  0
    1.1280   -0.6724   -1.8275 H   0  0  0  0  0  0  0  0  0  0  0  0
    1.7814   -1.9610   -0.7987 H   0  0  0  0  0  0  0  0  0  0  0  0
    0.4884   -0.9575    1.9494 H   0  0  0  0  0  0  0  0  0  0  0  0
   -0.8289   -2.1695    1.4313 H   0  0  0  0  0  0  0  0  0  0  0  0
    0.8588   -2.4316    1.0500 H   0  0  0  0  0  0  0  0  0  0  0  0
   -0.6720    0.3797   -1.4642 H   0  0  0  0  0  0  0  0  0  0  0  0
   -0.0583    1.1222   -0.0024 H   0  0  0  0  0  0  0  0  0  0  0  0
   -2.8615    1.7532   -1.2056 H   0  0  0  0  0  0  0  0  0  0  0  0
   -1.6277    2.4268   -0.3127 H   0  0  0  0  0  0  0  0  0  0  0  0
   -4.0817   -0.0880   -0.5536 H   0  0  0  0  0  0  0  0  0  0  0  0
   -2.8519   -1.3322   -0.9642 H   0  0  0  0  0  0  0  0  0  0  0  0
   -1.6823   -0.1163    2.2537 H   0  0  0  0  0  0  0  0  0  0  0  0
   -3.1715    0.8529    1.9412 H   0  0  0  0  0  0  0  0  0  0  0  0
  1  2  1  0
  2  3  1  0
  3  4  2  0
  3  5  1  0
  5  6  1  0
  6  7  1  0
  6  8  1  0
  8  9  1  0
  9 10  1  0
  9 11  1  0
 11 12  1  0
 12 13  1  0
 13  9  1  0
  1 14  1  0
  1 15  1  0
  1 16  1  0
  5 17  1  0
  5 18  1  0
  7 19  1  0
  7 20  1  0
  7 21  1  0
  8 22  1  0
  8 23  1  0
 10 24  1  0
 10 25  1  0
 11 26  1  0
 11 27  1  0
 13 28  1  0
 13 29  1  0
M  END
$$$$
