
     RDKit          3D

 28 28  0  0  0  0  0  0  0  0999 V2000
   -2.7248   -1.5654   -0.7372 C   0  0  0  0  0  0  0  0  0  0  0  0
   -1.4078   -0.9216   -0.4944 C   0  0  2  0  0  0  0  0  0  0  0  0
   -0.6018   -1.5196    0.6061 C   0  0  0  0  0  0  0  0  0  0  0  0
    0.7414   -0.8359    0.6677 C   0  0  0  0  0  0  0  0  0  0  0  0
    0.9064    0.2184   -0.3117 N   0  0  0  0  0  0  0  0  0  0  0  0
    2.1480    0.3590   -1.0784 C   0  0  0  0  0  0  0  0  0  0  0  0
    3.1093    1.2322   -0.3870 C   0  0  0  0  0  0  0  0  0  0  0  0
    2.7339    1.7949    0.8623 N   0  0  0  0  0  0  0  0  0  0  0  0
    4.2259    1.4589   -0.9081 O   0  0  0  0  0  0  0  0  0  0  0  0
   -0.1861    1.1125   -0.4978 C   0  0  0  0  0  0  0  0  0  0  0  0
    0.0214    2.2715   -0.9057 O   0  0  0  0  0  0  0  0  0  0  0  0
   -1.5402    0.5780   -0.1809 C   0  0  2  0  0  0  0  0  0  0  0  0
   -1.7367    0.6976    1.2411 N   0  0  0  0  0  0  0  0  0  0  0  0
   -2.5307   -2.5102   -1.3245 H   0  0  0  0  0  0  0  0  0  0  0  0
   -3.3223   -1.7544    0.1654 H   0  0  0  0  0  0  0  0  0  0  0  0
   -3.3073   -0.9026   -1.4241 H   0  0  0  0  0  0  0  0  0  0  0  0
   -0.8051   -1.0253   -1.4420 H   0  0  0  0  0  0  0  0  0  0  0  0
   -0.4704   -2.6145    0.5193 H   0  0  0  0  0  0  0  0  0  0  0  0
   -1.1367   -1.2876    1.5710 H   0  0  0  0  0  0  0  0  0  0  0  0
    1.5615   -1.5780    0.5115 H   0  0  0  0  0  0  0  0  0  0  0  0
    0.9381   -0.3853    1.6635 H   0  0  0  0  0  0  0  0  0  0  0  0
    2.5746   -0.6572   -1.1621 H   0  0  0  0  0  0  0  0  0  0  0  0
    1.9452    0.7104   -2.1070 H   0  0  0  0  0  0  0  0  0  0  0  0
    2.4428    2.7862    0.8915 H   0  0  0  0  0  0  0  0  0  0  0  0
    2.7538    1.2181    1.7219 H   0  0  0  0  0  0  0  0  0  0  0  0
   -2.3306    1.0384   -0.7823 H   0  0  0  0  0  0  0  0  0  0  0  0
   -2.7092    0.5437    1.5429 H   0  0  0  0  0  0  0  0  0  0  0  0
   -1.2927    1.5377    1.6519 H   0  0  0  0  0  0  0  0  0  0  0  0
  1  2  1  0
  2  3  1  0
  3  4  1  0
  4  5  1  0
  5  6  1  0
  6  7  1  0
  7  8  1  0
  7  9  2  0
  5 10  1  0
 10 11  2  0
 10 12  1  0
 12 13  1  0
 12  2  1  0
  1 14  1  0
  1 15  1  0
  1 16  1  0
  2 17  1  6
  3 18  1  0
  3 19  1  0
  4 20  1  0
  4 21  1  0
  6 22  1  0
  6 23  1  0
  8 24  1  0
  8 25  1  0
 12 26  1  6
 13 27  1  0
 13 28  1  0
M  END
$$$$

     RDKit          3D

 28 28  0  0  0  0  0  0  0  0999 V2000
   -3.1466   -0.2304    0.7601 C   0  0  0  0  0  0  0  0  0  0  0  0
   -1.7573   -0.5398    0.3189 C   0  0  2  0  0  0  0  0  0  0  0  0
   -0.7206   -0.2952    1.4061 C   0  0  0  0  0  0  0  0  0  0  0  0
    0.5126   -1.0852    1.0025 C   0  0  0  0  0  0  0  0  0  0  0  0
    1.0252   -0.5530   -0.2482 N   0  0  0  0  0  0  0  0  0  0  0  0
    2.3599   -0.8353   -0.6671 C   0  0  0  0  0  0  0  0  0  0  0  0
    3.3557    0.1499   -0.1941 C   0  0  0  0  0  0  0  0  0  0  0  0
    3.0587    1.2733    0.5957 N   0  0  0  0  0  0  0  0  0  0  0  0
    4.5535   -0.0439   -0.5309 O   0  0  0  0  0  0  0  0  0  0  0  0
    0.1537    0.2520   -1.0308 C   0  0  0  0  0  0  0  0  0  0  0  0
    0.6804    1.0152   -1.8830 O   0  0  0  0  0  0  0  0  0  0  0  0
   -1.3233    0.2332   -0.8909 C   0  0  2  0  0  0  0  0  0  0  0  0
   -1.8359    1.5742   -0.9238 N   0  0  0  0  0  0  0  0  0  0  0  0
   -3.2147    0.6512    1.4127 H   0  0  0  0  0  0  0  0  0  0  0  0
   -3.7825   -0.1062   -0.1415 H   0  0  0  0  0  0  0  0  0  0  0  0
   -3.5706   -1.1106    1.3054 H   0  0  0  0  0  0  0  0  0  0  0  0
   -1.6934   -1.6437    0.0973 H   0  0  0  0  0  0  0  0  0  0  0  0
   -1.0825   -0.5797    2.3933 H   0  0  0  0  0  0  0  0  0  0  0  0
   -0.4997    0.8010    1.3708 H   0  0  0  0  0  0  0  0  0  0  0  0
    0.1720   -2.1217    0.7780 H   0  0  0  0  0  0  0  0  0  0  0  0
    1.2730   -1.0551    1.8104 H   0  0  0  0  0  0  0  0  0  0  0  0
    2.4847   -0.9526   -1.7532 H   0  0  0  0  0  0  0  0  0  0  0  0
    2.6490   -1.8229   -0.2174 H   0  0  0  0  0  0  0  0  0  0  0  0
    2.3808    2.0267    0.3434 H   0  0  0  0  0  0  0  0  0  0  0  0
    3.5421    1.3895    1.5170 H   0  0  0  0  0  0  0  0  0  0  0  0
   -1.7252   -0.2999   -1.7820 H   0  0  0  0  0  0  0  0  0  0  0  0
   -2.7453    1.6927   -0.4454 H   0  0  0  0  0  0  0  0  0  0  0  0
   -1.1038    2.2163   -0.5381 H   0  0  0  0  0  0  0  0  0  0  0  0
  1  2  1  0
  2  3  1  0
  3  4  1  0
  4  5  1  0
  5  6  1  0
  6  7  1  0
  7  8  1  0
  7  9  2  0
  5 10  1  0
 10 11  2  0
 10 12  1  0
 12 13  1  0
 12  2  1  0
  1 14  1  0
  1 15  1  0
  1 16  1  0
  2 17  1  6
  3 18  1  0
  3 19  1  0
  4 20  1  0
  4 21  1  0
  6 22  1  0
  6 23  1  0
  8 24  1  0
  8 25  1  0
 12 26  1  6
 13 27  1  0
 13 28  1  0
M  END
$$$$

     RDKit          3D

 28 28  0  0  0  0  0  0  0  0999 V2000
   -3.1308    0.7151   -0.0653 C   0  0  0  0  0  0  0  0  0  0  0  0
   -2.0081   -0.3003    0.0675 C   0  0  2  0  0  0  0  0  0  0  0  0
   -1.0957    0.0635    1.2190 C   0  0  0  0  0  0  0  0  0  0  0  0
    0.0529   -0.9542    1.1936 C   0  0  0  0  0  0  0  0  0  0  0  0
    0.9003   -0.5347    0.0829 N   0  0  0  0  0  0  0  0  0  0  0  0
    2.3291   -0.6195    0.0951 C   0  0  0  0  0  0  0  0  0  0  0  0
    2.9803    0.5975    0.6260 C   0  0  0  0  0  0  0  0  0  0  0  0
    4.4017    0.6168    0.6815 N   0  0  0  0  0  0  0  0  0  0  0  0
    2.3227    1.5939    1.0210 O   0  0  0  0  0  0  0  0  0  0  0  0
    0.1964   -0.0166   -1.0565 C   0  0  0  0  0  0  0  0  0  0  0  0
    0.7877    0.7406   -1.8664 O   0  0  0  0  0  0  0  0  0  0  0  0
   -1.2258   -0.4247   -1.2027 C   0  0  2  0  0  0  0  0  0  0  0  0
   -1.8309    0.2727   -2.2777 N   0  0  0  0  0  0  0  0  0  0  0  0
   -3.6187    0.5169   -1.0404 H   0  0  0  0  0  0  0  0  0  0  0  0
   -2.7483    1.7487   -0.0647 H   0  0  0  0  0  0  0  0  0  0  0  0
   -3.8533    0.5385    0.7325 H   0  0  0  0  0  0  0  0  0  0  0  0
   -2.5144   -1.2686    0.3499 H   0  0  0  0  0  0  0  0  0  0  0  0
   -0.6673    1.0771    0.9871 H   0  0  0  0  0  0  0  0  0  0  0  0
   -1.6070    0.0661    2.1793 H   0  0  0  0  0  0  0  0  0  0  0  0
    0.5833   -1.0084    2.1412 H   0  0  0  0  0  0  0  0  0  0  0  0
   -0.3605   -1.9454    0.8985 H   0  0  0  0  0  0  0  0  0  0  0  0
    2.7726   -0.8392   -0.8962 H   0  0  0  0  0  0  0  0  0  0  0  0
    2.5997   -1.4498    0.8110 H   0  0  0  0  0  0  0  0  0  0  0  0
    4.9047    0.9972   -0.1382 H   0  0  0  0  0  0  0  0  0  0  0  0
    4.9157    0.2610    1.5166 H   0  0  0  0  0  0  0  0  0  0  0  0
   -1.2049   -1.5180   -1.4733 H   0  0  0  0  0  0  0  0  0  0  0  0
   -1.9111   -0.1880   -3.1659 H   0  0  0  0  0  0  0  0  0  0  0  0
   -1.9702    1.2617   -2.1928 H   0  0  0  0  0  0  0  0  0  0  0  0
  1  2  1  0
  2  3  1  0
  3  4  1  0
  4  5  1  0
  5  6  1  0
  6  7  1  0
  7  8  1  0
  7  9  2  0
  5 10  1  0
 10 11  2  0
 10 12  1  0
 12 13  1  0
 12  2  1  0
  1 14  1  0
  1 15  1  0
  1 16  1  0
  2 17  1  1
  3 18  1  0
  3 19  1  0
  4 20  1  0
  4 21  1  0
  6 22  1  0
  6 23  1  0
  8 24  1  0
  8 25  1  0
 12 26  1  6
 13 27  1  0
 13 28  1  0
M  END
$$$$

     RDKit          3D

 28 28  0  0  0  0  0  0  0  0999 V2000
   -2.4919    0.6646    0.8487 C   0  0  0  0  0  0  0  0  0  0  0  0
   -1.7790   -0.6514    0.6454 C   0  0  2  0  0  0  0  0  0  0  0  0
   -0.5796   -0.7187    1.5225 C   0  0  0  0  0  0  0  0  0  0  0  0
    0.6536   -1.2490    0.8546 C   0  0  0  0  0  0  0  0  0  0  0  0
    0.9367   -0.4412   -0.3380 N   0  0  0  0  0  0  0  0  0  0  0  0
    2.2479    0.0524   -0.6501 C   0  0  0  0  0  0  0  0  0  0  0  0
    2.4337    1.3793   -0.0358 C   0  0  0  0  0  0  0  0  0  0  0  0
    3.6447    2.1111   -0.1797 N   0  0  0  0  0  0  0  0  0  0  0  0
    1.5124    1.9138    0.6452 O   0  0  0  0  0  0  0  0  0  0  0  0
   -0.1987   -0.1844   -1.1659 C   0  0  0  0  0  0  0  0  0  0  0  0
   -0.1105    0.5995   -2.1154 O   0  0  0  0  0  0  0  0  0  0  0  0
   -1.4355   -0.9238   -0.7824 C   0  0  2  0  0  0  0  0  0  0  0  0
   -2.5086   -0.7280   -1.6970 N   0  0  0  0  0  0  0  0  0  0  0  0
   -1.9042    1.5335    0.5508 H   0  0  0  0  0  0  0  0  0  0  0  0
   -3.4483    0.6999    0.3048 H   0  0  0  0  0  0  0  0  0  0  0  0
   -2.7512    0.7140    1.9400 H   0  0  0  0  0  0  0  0  0  0  0  0
   -2.5129   -1.4479    0.9639 H   0  0  0  0  0  0  0  0  0  0  0  0
   -0.7773   -1.3942    2.4056 H   0  0  0  0  0  0  0  0  0  0  0  0
   -0.3423    0.2883    1.9430 H   0  0  0  0  0  0  0  0  0  0  0  0
    0.5476   -2.2981    0.5426 H   0  0  0  0  0  0  0  0  0  0  0  0
    1.4834   -1.1886    1.5808 H   0  0  0  0  0  0  0  0  0  0  0  0
    2.9905   -0.6754   -0.2504 H   0  0  0  0  0  0  0  0  0  0  0  0
    2.4125    0.1231   -1.7527 H   0  0  0  0  0  0  0  0  0  0  0  0
    3.9040    2.8739    0.4816 H   0  0  0  0  0  0  0  0  0  0  0  0
    4.2898    1.8739   -0.9722 H   0  0  0  0  0  0  0  0  0  0  0  0
   -1.1513   -2.0160   -0.8373 H   0  0  0  0  0  0  0  0  0  0  0  0
   -2.2623   -1.1514   -2.6137 H   0  0  0  0  0  0  0  0  0  0  0  0
   -2.8031    0.2406   -1.8387 H   0  0  0  0  0  0  0  0  0  0  0  0
  1  2  1  0
  2  3  1  0
  3  4  1  0
  4  5  1  0
  5  6  1  0
  6  7  1  0
  7  8  1  0
  7  9  2  0
  5 10  1  0
 10 11  2  0
 10 12  1  0
 12 13  1  0
 12  2  1  0
  1 14  1  0
  1 15  1  0
  1 16  1  0
  2 17  1  1
  3 18  1  0
  3 19  1  0
  4 20  1  0
  4 21  1  0
  6 22  1  0
  6 23  1  0
  8 24  1  0
  8 25  1  0
 12 26  1  1
 13 27  1  0
 13 28  1  0
M  END
$$$$

     RDKit          3D

 28 28  0  0  0  0  0  0  0  0999 V2000
   -2.6118    0.9668    1.0680 C   0  0  0  0  0  0  0  0  0  0  0  0
   -1.8283   -0.0494    0.2751 C   0  0  2  0  0  0  0  0  0  0  0  0
   -0.7166   -0.5707    1.1575 C   0  0  0  0  0  0  0  0  0  0  0  0
    0.0710   -1.5692    0.3147 C   0  0  0  0  0  0  0  0  0  0  0  0
    0.8463   -0.7517   -0.6318 N   0  0  0  0  0  0  0  0  0  0  0  0
    2.1685   -1.1327   -1.0487 C   0  0  0  0  0  0  0  0  0  0  0  0
    3.2184   -0.5648   -0.1495 C   0  0  0  0  0  0  0  0  0  0  0  0
    2.8708    0.2407    0.9569 N   0  0  0  0  0  0  0  0  0  0  0  0
    4.4409   -0.7830   -0.3454 O   0  0  0  0  0  0  0  0  0  0  0  0
    0.1956    0.4279   -1.0957 C   0  0  0  0  0  0  0  0  0  0  0  0
    0.9021    1.3593   -1.5568 O   0  0  0  0  0  0  0  0  0  0  0  0
   -1.2796    0.4896   -1.0079 C   0  0  2  0  0  0  0  0  0  0  0  0
   -1.7474    1.8608   -1.1806 N   0  0  0  0  0  0  0  0  0  0  0  0
   -3.5637    1.2553    0.5359 H   0  0  0  0  0  0  0  0  0  0  0  0
   -2.8744    0.4828    2.0388 H   0  0  0  0  0  0  0  0  0  0  0  0
   -2.0649    1.8827    1.2888 H   0  0  0  0  0  0  0  0  0  0  0  0
   -2.5254   -0.9151    0.1050 H   0  0  0  0  0  0  0  0  0  0  0  0
   -0.0800    0.2625    1.4587 H   0  0  0  0  0  0  0  0  0  0  0  0
   -1.1163   -1.1074    2.0337 H   0  0  0  0  0  0  0  0  0  0  0  0
    0.7900   -2.1368    0.9208 H   0  0  0  0  0  0  0  0  0  0  0  0
   -0.6198   -2.1789   -0.2796 H   0  0  0  0  0  0  0  0  0  0  0  0
    2.2562   -2.2363   -0.9736 H   0  0  0  0  0  0  0  0  0  0  0  0
    2.3710   -0.8711   -2.1101 H   0  0  0  0  0  0  0  0  0  0  0  0
    3.2134    1.2134    1.0144 H   0  0  0  0  0  0  0  0  0  0  0  0
    2.2753   -0.1332    1.7127 H   0  0  0  0  0  0  0  0  0  0  0  0
   -1.7414   -0.1022   -1.8514 H   0  0  0  0  0  0  0  0  0  0  0  0
   -1.6161    2.1898   -2.1604 H   0  0  0  0  0  0  0  0  0  0  0  0
   -1.2338    2.4706   -0.4896 H   0  0  0  0  0  0  0  0  0  0  0  0
  1  2  1  0
  2  3  1  0
  3  4  1  0
  4  5  1  0
  5  6  1  0
  6  7  1  0
  7  8  1  0
  7  9  2  0
  5 10  1  0
 10 11  2  0
 10 12  1  0
 12 13  1  0
 12  2  1  0
  1 14  1  0
  1 15  1  0
  1 16  1  0
  2 17  1  6
  3 18  1  0
  3 19  1  0
  4 20  1  0
  4 21  1  0
  6 22  1  0
  6 23  1  0
  8 24  1  0
  8 25  1  0
 12 26  1  6
 13 27  1  0
 13 28  1  0
M  END
$$$$

     RDKit          3D

 28 28  0  0  0  0  0  0  0  0999 V2000
    3.2487   -0.7261   -0.2385 C   0  0  0  0  0  0  0  0  0  0  0  0
    1.8110   -0.7182    0.2293 C   0  0  2  0  0  0  0  0  0  0  0  0
    0.8958   -1.4095   -0.7567 C   0  0  0  0  0  0  0  0  0  0  0  0
   -0.5072   -1.3621   -0.1347 C   0  0  0  0  0  0  0  0  0  0  0  0
   -0.9407    0.0008   -0.2673 N   0  0  0  0  0  0  0  0  0  0  0  0
   -2.3115    0.3264   -0.5114 C   0  0  0  0  0  0  0  0  0  0  0  0
   -3.0893    0.5181    0.7418 C   0  0  0  0  0  0  0  0  0  0  0  0
   -4.4539    0.8428    0.6248 N   0  0  0  0  0  0  0  0  0  0  0  0
   -2.5872    0.4042    1.8858 O   0  0  0  0  0  0  0  0  0  0  0  0
    0.0406    1.0104   -0.1484 C   0  0  0  0  0  0  0  0  0  0  0  0
   -0.1305    2.1771   -0.6088 O   0  0  0  0  0  0  0  0  0  0  0  0
    1.3054    0.6452    0.5507 C   0  0  2  0  0  0  0  0  0  0  0  0
    2.3510    1.6186    0.2822 N   0  0  0  0  0  0  0  0  0  0  0  0
    3.9728   -0.7790    0.5984 H   0  0  0  0  0  0  0  0  0  0  0  0
    3.3747   -1.6671   -0.8485 H   0  0  0  0  0  0  0  0  0  0  0  0
    3.5018    0.1258   -0.8866 H   0  0  0  0  0  0  0  0  0  0  0  0
    1.7927   -1.3596    1.1586 H   0  0  0  0  0  0  0  0  0  0  0  0
    1.2026   -2.4304   -0.9792 H   0  0  0  0  0  0  0  0  0  0  0  0
    0.8549   -0.7874   -1.6837 H   0  0  0  0  0  0  0  0  0  0  0  0
   -1.1491   -2.0835   -0.6594 H   0  0  0  0  0  0  0  0  0  0  0  0
   -0.4292   -1.5712    0.9677 H   0  0  0  0  0  0  0  0  0  0  0  0
   -2.4052    1.2583   -1.1311 H   0  0  0  0  0  0  0  0  0  0  0  0
   -2.8007   -0.4779   -1.1219 H   0  0  0  0  0  0  0  0  0  0  0  0
   -4.8935    1.4790    1.3164 H   0  0  0  0  0  0  0  0  0  0  0  0
   -5.0383    0.4599   -0.1415 H   0  0  0  0  0  0  0  0  0  0  0  0
    1.0800    0.7334    1.6468 H   0  0  0  0  0  0  0  0  0  0  0  0
    3.2071    1.2579    0.7846 H   0  0  0  0  0  0  0  0  0  0  0  0
    2.0973    2.5139    0.7980 H   0  0  0  0  0  0  0  0  0  0  0  0
  1  2  1  0
  2  3  1  0
  3  4  1  0
  4  5  1  0
  5  6  1  0
  6  7  1  0
  7  8  1  0
  7  9  2  0
  5 10  1  0
 10 11  2  0
 10 12  1  0
 12 13  1  0
 12  2  1  0
  1 14  1  0
  1 15  1  0
  1 16  1  0
  2 17  1  1
  3 18  1  0
  3 19  1  0
  4 20  1  0
  4 21  1  0
  6 22  1  0
  6 23  1  0
  8 24  1  0
  8 25  1  0
 12 26  1  1
 13 27  1  0
 13 28  1  0
M  END
$$$$

     RDKit          3D

 28 28  0  0  0  0  0  0  0  0999 V2000
   -3.1224    0.3514   -0.5224 C   0  0  0  0  0  0  0  0  0  0  0  0
   -1.6375    0.3200   -0.4069 C   0  0  2  0  0  0  0  0  0  0  0  0
   -1.0298   -0.8117   -1.2116 C   0  0  0  0  0  0  0  0  0  0  0  0
    0.4505   -0.4945   -1.3439 C   0  0  0  0  0  0  0  0  0  0  0  0
    1.0156   -0.6002   -0.0225 N   0  0  0  0  0  0  0  0  0  0  0  0
    2.3177   -1.1778    0.1721 C   0  0  0  0  0  0  0  0  0  0  0  0
    3.3872   -0.1433    0.0986 C   0  0  0  0  0  0  0  0  0  0  0  0
    3.1339    1.2153   -0.1319 N   0  0  0  0  0  0  0  0  0  0  0  0
    4.5688   -0.5399    0.2554 O   0  0  0  0  0  0  0  0  0  0  0  0
    0.2847   -0.1322    1.0937 C   0  0  0  0  0  0  0  0  0  0  0  0
    0.8543    0.1137    2.2144 O   0  0  0  0  0  0  0  0  0  0  0  0
   -1.1824    0.1030    1.0385 C   0  0  2  0  0  0  0  0  0  0  0  0
   -1.9403   -0.9825    1.5977 N   0  0  0  0  0  0  0  0  0  0  0  0
   -3.5263    1.3008   -0.1528 H   0  0  0  0  0  0  0  0  0  0  0  0
   -3.5508   -0.5278    0.0323 H   0  0  0  0  0  0  0  0  0  0  0  0
   -3.3887    0.2732   -1.5935 H   0  0  0  0  0  0  0  0  0  0  0  0
   -1.1993    1.2757   -0.7434 H   0  0  0  0  0  0  0  0  0  0  0  0
   -1.5240   -0.9879   -2.1659 H   0  0  0  0  0  0  0  0  0  0  0  0
   -1.1104   -1.7217   -0.5751 H   0  0  0  0  0  0  0  0  0  0  0  0
    0.9163   -1.1908   -2.0666 H   0  0  0  0  0  0  0  0  0  0  0  0
    0.5286    0.5625   -1.6965 H   0  0  0  0  0  0  0  0  0  0  0  0
    2.4165   -1.6872    1.1473 H   0  0  0  0  0  0  0  0  0  0  0  0
    2.5375   -1.9069   -0.6523 H   0  0  0  0  0  0  0  0  0  0  0  0
    3.1260    1.8771    0.6707 H   0  0  0  0  0  0  0  0  0  0  0  0
    2.9518    1.5903   -1.0850 H   0  0  0  0  0  0  0  0  0  0  0  0
   -1.3741    1.0397    1.6314 H   0  0  0  0  0  0  0  0  0  0  0  0
   -1.2995   -1.6723    2.0750 H   0  0  0  0  0  0  0  0  0  0  0  0
   -2.6039   -0.6610    2.3432 H   0  0  0  0  0  0  0  0  0  0  0  0
  1  2  1  0
  2  3  1  0
  3  4  1  0
  4  5  1  0
  5  6  1  0
  6  7  1  0
  7  8  1  0
  7  9  2  0
  5 10  1  0
 10 11  2  0
 10 12  1  0
 12 13  1  0
 12  2  1  0
  1 14  1  0
  1 15  1  0
  1 16  1  0
  2 17  1  6
  3 18  1  0
  3 19  1  0
  4 20  1  0
  4 21  1  0
  6 22  1  0
  6 23  1  0
  8 24  1  0
  8 25  1  0
 12 26  1  1
 13 27  1  0
 13 28  1  0
M  END
$$$$

     RDKit          3D

 28 28  0  0  0  0  0  0  0  0999 V2000
   -3.4232   -0.0713   -0.0745 C   0  0  0  0  0  0  0  0  0  0  0  0
   -1.9558   -0.1642    0.2005 C   0  0  2  0  0  0  0  0  0  0  0  0
   -1.2832    1.1651   -0.0742 C   0  0  0  0  0  0  0  0  0  0  0  0
    0.0274    1.1574    0.6874 C   0  0  0  0  0  0  0  0  0  0  0  0
    0.7576   -0.0798    0.4819 N   0  0  0  0  0  0  0  0  0  0  0  0
    2.1462   -0.0984    0.9149 C   0  0  0  0  0  0  0  0  0  0  0  0
    3.0612    0.3382   -0.1804 C   0  0  0  0  0  0  0  0  0  0  0  0
    4.4448    0.3659    0.1089 N   0  0  0  0  0  0  0  0  0  0  0  0
    2.6570    0.6683   -1.3049 O   0  0  0  0  0  0  0  0  0  0  0  0
    0.1782   -1.2362   -0.1097 C   0  0  0  0  0  0  0  0  0  0  0  0
    0.8871   -2.2572   -0.2802 O   0  0  0  0  0  0  0  0  0  0  0  0
   -1.2653   -1.2650   -0.5364 C   0  0  2  0  0  0  0  0  0  0  0  0
   -1.2796   -1.1155   -1.9599 N   0  0  0  0  0  0  0  0  0  0  0  0
   -3.6779    0.2474   -1.0923 H   0  0  0  0  0  0  0  0  0  0  0  0
   -3.8389    0.7004    0.6228 H   0  0  0  0  0  0  0  0  0  0  0  0
   -3.9279   -1.0152    0.1882 H   0  0  0  0  0  0  0  0  0  0  0  0
   -1.8343   -0.3641    1.2905 H   0  0  0  0  0  0  0  0  0  0  0  0
   -1.1047    1.3271   -1.1515 H   0  0  0  0  0  0  0  0  0  0  0  0
   -1.9217    1.9598    0.3496 H   0  0  0  0  0  0  0  0  0  0  0  0
    0.6621    2.0278    0.4326 H   0  0  0  0  0  0  0  0  0  0  0  0
   -0.2487    1.1630    1.7810 H   0  0  0  0  0  0  0  0  0  0  0  0
    2.3056    0.5944    1.7718 H   0  0  0  0  0  0  0  0  0  0  0  0
    2.4315   -1.0978    1.2602 H   0  0  0  0  0  0  0  0  0  0  0  0
    5.1506   -0.0769   -0.5189 H   0  0  0  0  0  0  0  0  0  0  0  0
    4.7903    0.8393    0.9728 H   0  0  0  0  0  0  0  0  0  0  0  0
   -1.6948   -2.2343   -0.2553 H   0  0  0  0  0  0  0  0  0  0  0  0
   -1.7109   -0.2481   -2.3028 H   0  0  0  0  0  0  0  0  0  0  0  0
   -0.3330   -1.2299   -2.3948 H   0  0  0  0  0  0  0  0  0  0  0  0
  1  2  1  0
  2  3  1  0
  3  4  1  0
  4  5  1  0
  5  6  1  0
  6  7  1  0
  7  8  1  0
  7  9  2  0
  5 10  1  0
 10 11  2  0
 10 12  1  0
 12 13  1  0
 12  2  1  0
  1 14  1  0
  1 15  1  0
  1 16  1  0
  2 17  1  1
  3 18  1  0
  3 19  1  0
  4 20  1  0
  4 21  1  0
  6 22  1  0
  6 23  1  0
  8 24  1  0
  8 25  1  0
 12 26  1  6
 13 27  1  0
 13 28  1  0
M  END
$$$$
