
     RDKit          3D

 29 30  0  0  0  0  0  0  0  0999 V2000
   -4.0776    1.5155   -0.2826 C   0  0  0  0  0  0  0  0  0  0  0  0
   -3.3203    0.5499    0.3739 O   0  0  0  0  0  0  0  0  0  0  0  0
   -2.1008    0.3216   -0.2149 C   0  0  1  0  0  0  0  0  0  0  0  0
   -0.9361    0.5477    0.7238 C   0  0  0  0  0  0  0  0  0  0  0  0
    0.1352   -0.1392    0.0288 N   0  0  0  0  0  0  0  0  0  0  0  0
    1.5241    0.1165    0.1936 C   0  0  0  0  0  0  0  0  0  0  0  0
    2.0722    1.0459    1.0292 N   0  0  0  0  0  0  0  0  0  0  0  0
    3.3992    1.0036    0.9201 C   0  0  0  0  0  0  0  0  0  0  0  0
    3.6983    0.0468    0.0146 N   0  0  0  0  0  0  0  0  0  0  0  0
    5.0317   -0.3368   -0.4123 C   0  0  0  0  0  0  0  0  0  0  0  0
    2.5653   -0.4695   -0.4061 N   0  0  0  0  0  0  0  0  0  0  0  0
   -0.3932   -1.1414   -0.8754 C   0  0  0  0  0  0  0  0  0  0  0  0
   -1.8989   -1.1291   -0.6013 C   0  0  1  0  0  0  0  0  0  0  0  0
   -2.1758   -2.0301    0.4844 N   0  0  0  0  0  0  0  0  0  0  0  0
   -4.2991    1.2498   -1.3268 H   0  0  0  0  0  0  0  0  0  0  0  0
   -3.6142    2.5233   -0.2140 H   0  0  0  0  0  0  0  0  0  0  0  0
   -5.0519    1.5701    0.2456 H   0  0  0  0  0  0  0  0  0  0  0  0
   -1.9127    0.9370   -1.1129 H   0  0  0  0  0  0  0  0  0  0  0  0
   -1.0914    0.0472    1.7061 H   0  0  0  0  0  0  0  0  0  0  0  0
   -0.7221    1.6116    0.8986 H   0  0  0  0  0  0  0  0  0  0  0  0
    4.1490    1.5917    1.4277 H   0  0  0  0  0  0  0  0  0  0  0  0
    5.5396    0.5621   -0.8216 H   0  0  0  0  0  0  0  0  0  0  0  0
    4.9611   -1.0928   -1.2103 H   0  0  0  0  0  0  0  0  0  0  0  0
    5.6608   -0.6910    0.4329 H   0  0  0  0  0  0  0  0  0  0  0  0
   -0.2554   -0.8262   -1.9143 H   0  0  0  0  0  0  0  0  0  0  0  0
    0.0399   -2.1372   -0.6599 H   0  0  0  0  0  0  0  0  0  0  0  0
   -2.4519   -1.3822   -1.5285 H   0  0  0  0  0  0  0  0  0  0  0  0
   -3.0630   -1.8158    0.9941 H   0  0  0  0  0  0  0  0  0  0  0  0
   -1.4120   -2.0491    1.1739 H   0  0  0  0  0  0  0  0  0  0  0  0
  1  2  1  0
  2  3  1  0
  3  4  1  0
  4  5  1  0
  5  6  1  0
  6  7  1  0
  7  8  2  0
  8  9  1  0
  9 10  1  0
  9 11  1  0
  5 12  1  0
 12 13  1  0
 13 14  1  0
 13  3  1  0
 11  6  2  0
  1 15  1  0
  1 16  1  0
  1 17  1  0
  3 18  1  6
  4 19  1  0
  4 20  1  0
  8 21  1  0
 10 22  1  0
 10 23  1  0
 10 24  1  0
 12 25  1  0
 12 26  1  0
 13 27  1  6
 14 28  1  0
 14 29  1  0
M  END
$$$$

     RDKit          3D

 29 30  0  0  0  0  0  0  0  0999 V2000
   -3.8950    0.9998    1.1314 C   0  0  0  0  0  0  0  0  0  0  0  0
   -2.7032    0.2815    1.0794 O   0  0  0  0  0  0  0  0  0  0  0  0
   -1.9914    0.5259   -0.0853 C   0  0  1  0  0  0  0  0  0  0  0  0
   -0.5583    0.9666    0.2374 C   0  0  0  0  0  0  0  0  0  0  0  0
    0.2501   -0.2138    0.1300 N   0  0  0  0  0  0  0  0  0  0  0  0
    1.6524   -0.2884    0.0221 C   0  0  0  0  0  0  0  0  0  0  0  0
    2.4323   -1.4001   -0.0806 N   0  0  0  0  0  0  0  0  0  0  0  0
    3.7272   -1.0812   -0.1647 C   0  0  0  0  0  0  0  0  0  0  0  0
    3.7680    0.2615   -0.1141 N   0  0  0  0  0  0  0  0  0  0  0  0
    5.0195    1.0073   -0.1779 C   0  0  0  0  0  0  0  0  0  0  0  0
    2.5484    0.7402   -0.0038 N   0  0  0  0  0  0  0  0  0  0  0  0
   -0.6371   -1.3456    0.1510 C   0  0  0  0  0  0  0  0  0  0  0  0
   -1.7521   -0.8200   -0.7560 C   0  0  1  0  0  0  0  0  0  0  0  0
   -2.8889   -1.6900   -0.6720 N   0  0  0  0  0  0  0  0  0  0  0  0
   -3.7248    2.0869    1.0886 H   0  0  0  0  0  0  0  0  0  0  0  0
   -4.4100    0.7171    2.0716 H   0  0  0  0  0  0  0  0  0  0  0  0
   -4.5827    0.7530    0.2973 H   0  0  0  0  0  0  0  0  0  0  0  0
   -2.4932    1.2432   -0.7617 H   0  0  0  0  0  0  0  0  0  0  0  0
   -0.2372    1.7917   -0.4276 H   0  0  0  0  0  0  0  0  0  0  0  0
   -0.5540    1.2746    1.3046 H   0  0  0  0  0  0  0  0  0  0  0  0
    4.5666   -1.7433   -0.2539 H   0  0  0  0  0  0  0  0  0  0  0  0
    4.8652    1.9843    0.3261 H   0  0  0  0  0  0  0  0  0  0  0  0
    5.2868    1.0977   -1.2423 H   0  0  0  0  0  0  0  0  0  0  0  0
    5.7817    0.4421    0.3626 H   0  0  0  0  0  0  0  0  0  0  0  0
   -0.1922   -2.2724   -0.2465 H   0  0  0  0  0  0  0  0  0  0  0  0
   -1.0527   -1.4599    1.1695 H   0  0  0  0  0  0  0  0  0  0  0  0
   -1.3685   -0.6886   -1.7772 H   0  0  0  0  0  0  0  0  0  0  0  0
   -3.5303   -1.5640   -1.4686 H   0  0  0  0  0  0  0  0  0  0  0  0
   -3.3266   -1.6063    0.2607 H   0  0  0  0  0  0  0  0  0  0  0  0
  1  2  1  0
  2  3  1  0
  3  4  1  0
  4  5  1  0
  5  6  1  0
  6  7  1  0
  7  8  2  0
  8  9  1  0
  9 10  1  0
  9 11  1  0
  5 12  1  0
 12 13  1  0
 13 14  1  0
 13  3  1  0
 11  6  2  0
  1 15  1  0
  1 16  1  0
  1 17  1  0
  3 18  1  6
  4 19  1  0
  4 20  1  0
  8 21  1  0
 10 22  1  0
 10 23  1  0
 10 24  1  0
 12 25  1  0
 12 26  1  0
 13 27  1  6
 14 28  1  0
 14 29  1  0
M  END
$$$$

     RDKit          3D

 29 30  0  0  0  0  0  0  0  0999 V2000
   -3.7132    2.0564    0.3869 C   0  0  0  0  0  0  0  0  0  0  0  0
   -2.9916    0.9449    0.8200 O   0  0  0  0  0  0  0  0  0  0  0  0
   -2.0434    0.6497   -0.1161 C   0  0  1  0  0  0  0  0  0  0  0  0
   -0.6332    0.6380    0.4271 C   0  0  0  0  0  0  0  0  0  0  0  0
    0.0653   -0.2225   -0.4987 N   0  0  0  0  0  0  0  0  0  0  0  0
    1.4620   -0.4450   -0.4991 C   0  0  0  0  0  0  0  0  0  0  0  0
    2.1947   -1.2249   -1.3186 N   0  0  0  0  0  0  0  0  0  0  0  0
    3.4875   -1.1381   -0.9573 C   0  0  0  0  0  0  0  0  0  0  0  0
    3.5742   -0.2979    0.0979 N   0  0  0  0  0  0  0  0  0  0  0  0
    4.7724    0.0993    0.8241 C   0  0  0  0  0  0  0  0  0  0  0  0
    2.3558    0.0934    0.3419 N   0  0  0  0  0  0  0  0  0  0  0  0
   -0.8424   -0.8404   -1.4405 C   0  0  0  0  0  0  0  0  0  0  0  0
   -2.1620   -0.7482   -0.6785 C   0  0  1  0  0  0  0  0  0  0  0  0
   -2.2082   -1.7586    0.3341 N   0  0  0  0  0  0  0  0  0  0  0  0
   -4.4892    2.2935    1.1589 H   0  0  0  0  0  0  0  0  0  0  0  0
   -4.2637    1.8162   -0.5444 H   0  0  0  0  0  0  0  0  0  0  0  0
   -3.0519    2.9184    0.2076 H   0  0  0  0  0  0  0  0  0  0  0  0
   -2.0745    1.3441   -0.9698 H   0  0  0  0  0  0  0  0  0  0  0  0
   -0.2286    1.6579    0.4709 H   0  0  0  0  0  0  0  0  0  0  0  0
   -0.6379    0.2030    1.4506 H   0  0  0  0  0  0  0  0  0  0  0  0
    4.3096   -1.6398   -1.4156 H   0  0  0  0  0  0  0  0  0  0  0  0
    4.9672    1.2021    0.6791 H   0  0  0  0  0  0  0  0  0  0  0  0
    4.6152   -0.0890    1.8908 H   0  0  0  0  0  0  0  0  0  0  0  0
    5.6622   -0.4237    0.4130 H   0  0  0  0  0  0  0  0  0  0  0  0
   -0.5778   -1.8822   -1.6722 H   0  0  0  0  0  0  0  0  0  0  0  0
   -0.9245   -0.1970   -2.3288 H   0  0  0  0  0  0  0  0  0  0  0  0
   -2.9852   -0.8543   -1.3983 H   0  0  0  0  0  0  0  0  0  0  0  0
   -1.8009   -1.4872    1.2365 H   0  0  0  0  0  0  0  0  0  0  0  0
   -1.8380   -2.6681   -0.0009 H   0  0  0  0  0  0  0  0  0  0  0  0
  1  2  1  0
  2  3  1  0
  3  4  1  0
  4  5  1  0
  5  6  1  0
  6  7  1  0
  7  8  2  0
  8  9  1  0
  9 10  1  0
  9 11  1  0
  5 12  1  0
 12 13  1  0
 13 14  1  0
 13  3  1  0
 11  6  2  0
  1 15  1  0
  1 16  1  0
  1 17  1  0
  3 18  1  6
  4 19  1  0
  4 20  1  0
  8 21  1  0
 10 22  1  0
 10 23  1  0
 10 24  1  0
 12 25  1  0
 12 26  1  0
 13 27  1  6
 14 28  1  0
 14 29  1  0
M  END
$$$$

     RDKit          3D

 29 30  0  0  0  0  0  0  0  0999 V2000
   -4.3462    0.1954   -0.8043 C   0  0  0  0  0  0  0  0  0  0  0  0
   -3.1796    0.6984   -0.2553 O   0  0  0  0  0  0  0  0  0  0  0  0
   -2.2220   -0.2742   -0.0283 C   0  0  1  0  0  0  0  0  0  0  0  0
   -0.9603    0.1318   -0.7878 C   0  0  0  0  0  0  0  0  0  0  0  0
    0.1382   -0.2694    0.0609 N   0  0  0  0  0  0  0  0  0  0  0  0
    1.5084   -0.0836   -0.2451 C   0  0  0  0  0  0  0  0  0  0  0  0
    1.9703    0.4904   -1.3648 N   0  0  0  0  0  0  0  0  0  0  0  0
    3.2980    0.5092   -1.3408 C   0  0  0  0  0  0  0  0  0  0  0  0
    3.6629   -0.0668   -0.1786 N   0  0  0  0  0  0  0  0  0  0  0  0
    5.0502   -0.2565    0.2627 C   0  0  0  0  0  0  0  0  0  0  0  0
    2.5871   -0.4280    0.4896 N   0  0  0  0  0  0  0  0  0  0  0  0
   -0.3577   -0.8868    1.2654 C   0  0  0  0  0  0  0  0  0  0  0  0
   -1.7317   -0.2641    1.4036 C   0  0  1  0  0  0  0  0  0  0  0  0
   -1.6885    1.0873    1.8891 N   0  0  0  0  0  0  0  0  0  0  0  0
   -4.2115   -0.3008   -1.7751 H   0  0  0  0  0  0  0  0  0  0  0  0
   -5.0345    1.0676   -0.9383 H   0  0  0  0  0  0  0  0  0  0  0  0
   -4.8761   -0.5079   -0.1363 H   0  0  0  0  0  0  0  0  0  0  0  0
   -2.5514   -1.2909   -0.3246 H   0  0  0  0  0  0  0  0  0  0  0  0
   -0.9658    1.2381   -0.8894 H   0  0  0  0  0  0  0  0  0  0  0  0
   -0.9202   -0.3383   -1.7912 H   0  0  0  0  0  0  0  0  0  0  0  0
    3.9184    0.9139   -2.1165 H   0  0  0  0  0  0  0  0  0  0  0  0
    5.0563   -0.7130    1.2616 H   0  0  0  0  0  0  0  0  0  0  0  0
    5.5280    0.7473    0.3285 H   0  0  0  0  0  0  0  0  0  0  0  0
    5.6166   -0.8751   -0.4447 H   0  0  0  0  0  0  0  0  0  0  0  0
   -0.5366   -1.9782    1.0748 H   0  0  0  0  0  0  0  0  0  0  0  0
    0.2759   -0.7244    2.1456 H   0  0  0  0  0  0  0  0  0  0  0  0
   -2.3534   -0.8912    2.0539 H   0  0  0  0  0  0  0  0  0  0  0  0
   -1.7301    1.8035    1.1336 H   0  0  0  0  0  0  0  0  0  0  0  0
   -0.9447    1.2663    2.5890 H   0  0  0  0  0  0  0  0  0  0  0  0
  1  2  1  0
  2  3  1  0
  3  4  1  0
  4  5  1  0
  5  6  1  0
  6  7  1  0
  7  8  2  0
  8  9  1  0
  9 10  1  0
  9 11  1  0
  5 12  1  0
 12 13  1  0
 13 14  1  0
 13  3  1  0
 11  6  2  0
  1 15  1  0
  1 16  1  0
  1 17  1  0
  3 18  1  6
  4 19  1  0
  4 20  1  0
  8 21  1  0
 10 22  1  0
 10 23  1  0
 10 24  1  0
 12 25  1  0
 12 26  1  0
 13 27  1  1
 14 28  1  0
 14 29  1  0
M  END
$$$$

     RDKit          3D

 29 30  0  0  0  0  0  0  0  0999 V2000
   -3.6636    1.2092   -0.2545 C   0  0  0  0  0  0  0  0  0  0  0  0
   -2.4563    0.6359    0.1257 O   0  0  0  0  0  0  0  0  0  0  0  0
   -1.9751   -0.2804   -0.7691 C   0  0  1  0  0  0  0  0  0  0  0  0
   -0.5433    0.1031   -1.1403 C   0  0  0  0  0  0  0  0  0  0  0  0
    0.1939   -0.2775    0.0483 N   0  0  0  0  0  0  0  0  0  0  0  0
    1.5479    0.0686    0.2923 C   0  0  0  0  0  0  0  0  0  0  0  0
    2.2875   -0.2471    1.3616 N   0  0  0  0  0  0  0  0  0  0  0  0
    3.5276    0.2488    1.2533 C   0  0  0  0  0  0  0  0  0  0  0  0
    3.5652    0.8958    0.0782 N   0  0  0  0  0  0  0  0  0  0  0  0
    4.7027    1.5984   -0.4804 C   0  0  0  0  0  0  0  0  0  0  0  0
    2.3748    0.7893   -0.5032 N   0  0  0  0  0  0  0  0  0  0  0  0
   -0.6284   -1.0534    0.9496 C   0  0  0  0  0  0  0  0  0  0  0  0
   -1.7032   -1.5689   -0.0182 C   0  0  1  0  0  0  0  0  0  0  0  0
   -2.8686   -2.0256    0.7062 N   0  0  0  0  0  0  0  0  0  0  0  0
   -4.4037    0.3945   -0.3501 H   0  0  0  0  0  0  0  0  0  0  0  0
   -3.5793    1.8445   -1.1372 H   0  0  0  0  0  0  0  0  0  0  0  0
   -3.9980    1.8496    0.5892 H   0  0  0  0  0  0  0  0  0  0  0  0
   -2.6072   -0.4331   -1.6572 H   0  0  0  0  0  0  0  0  0  0  0  0
   -0.4716    1.1858   -1.3554 H   0  0  0  0  0  0  0  0  0  0  0  0
   -0.2436   -0.5301   -1.9812 H   0  0  0  0  0  0  0  0  0  0  0  0
    4.3635    0.1686    1.9490 H   0  0  0  0  0  0  0  0  0  0  0  0
    5.6293    1.1248   -0.0724 H   0  0  0  0  0  0  0  0  0  0  0  0
    4.6755    2.6829   -0.2689 H   0  0  0  0  0  0  0  0  0  0  0  0
    4.7715    1.4416   -1.5907 H   0  0  0  0  0  0  0  0  0  0  0  0
   -0.1030   -1.8702    1.4451 H   0  0  0  0  0  0  0  0  0  0  0  0
   -1.1485   -0.3627    1.6346 H   0  0  0  0  0  0  0  0  0  0  0  0
   -1.2379   -2.3349   -0.6442 H   0  0  0  0  0  0  0  0  0  0  0  0
   -3.4731   -2.5385    0.0413 H   0  0  0  0  0  0  0  0  0  0  0  0
   -2.5348   -2.7191    1.4165 H   0  0  0  0  0  0  0  0  0  0  0  0
  1  2  1  0
  2  3  1  0
  3  4  1  0
  4  5  1  0
  5  6  1  0
  6  7  1  0
  7  8  2  0
  8  9  1  0
  9 10  1  0
  9 11  1  0
  5 12  1  0
 12 13  1  0
 13 14  1  0
 13  3  1  0
 11  6  2  0
  1 15  1  0
  1 16  1  0
  1 17  1  0
  3 18  1  6
  4 19  1  0
  4 20  1  0
  8 21  1  0
 10 22  1  0
 10 23  1  0
 10 24  1  0
 12 25  1  0
 12 26  1  0
 13 27  1  6
 14 28  1  0
 14 29  1  0
M  END
$$$$

     RDKit          3D

 29 30  0  0  0  0  0  0  0  0999 V2000
   -3.9838   -1.2933   -0.2892 C   0  0  0  0  0  0  0  0  0  0  0  0
   -2.7983   -0.6266   -0.5750 O   0  0  0  0  0  0  0  0  0  0  0  0
   -1.9605   -0.5566    0.5372 C   0  0  1  0  0  0  0  0  0  0  0  0
   -0.5547   -1.0425    0.2027 C   0  0  0  0  0  0  0  0  0  0  0  0
    0.1832    0.1141   -0.2181 N   0  0  0  0  0  0  0  0  0  0  0  0
    1.5760    0.2395   -0.3756 C   0  0  0  0  0  0  0  0  0  0  0  0
    2.2895    1.3292   -0.7738 N   0  0  0  0  0  0  0  0  0  0  0  0
    3.5859    1.0720   -0.8045 C   0  0  0  0  0  0  0  0  0  0  0  0
    3.7348   -0.2002   -0.4232 N   0  0  0  0  0  0  0  0  0  0  0  0
    5.0337   -0.8543   -0.3312 C   0  0  0  0  0  0  0  0  0  0  0  0
    2.5406   -0.7037   -0.1656 N   0  0  0  0  0  0  0  0  0  0  0  0
   -0.7772    1.1589   -0.4594 C   0  0  0  0  0  0  0  0  0  0  0  0
   -1.6857    0.9414    0.7372 C   0  0  1  0  0  0  0  0  0  0  0  0
   -2.9092    1.6963    0.6459 N   0  0  0  0  0  0  0  0  0  0  0  0
   -4.5740   -0.8215    0.5034 H   0  0  0  0  0  0  0  0  0  0  0  0
   -4.5846   -1.3018   -1.2226 H   0  0  0  0  0  0  0  0  0  0  0  0
   -3.7081   -2.3473   -0.0684 H   0  0  0  0  0  0  0  0  0  0  0  0
   -2.3655   -1.0273    1.4306 H   0  0  0  0  0  0  0  0  0  0  0  0
   -0.1611   -1.4983    1.1319 H   0  0  0  0  0  0  0  0  0  0  0  0
   -0.6013   -1.8426   -0.5498 H   0  0  0  0  0  0  0  0  0  0  0  0
    4.3381    1.8023   -1.0947 H   0  0  0  0  0  0  0  0  0  0  0  0
    5.4936   -0.6241    0.6552 H   0  0  0  0  0  0  0  0  0  0  0  0
    5.6901   -0.4430   -1.1168 H   0  0  0  0  0  0  0  0  0  0  0  0
    4.8814   -1.9492   -0.4692 H   0  0  0  0  0  0  0  0  0  0  0  0
   -0.3195    2.1681   -0.4496 H   0  0  0  0  0  0  0  0  0  0  0  0
   -1.3353    0.9779   -1.4070 H   0  0  0  0  0  0  0  0  0  0  0  0
   -1.1245    1.1335    1.6559 H   0  0  0  0  0  0  0  0  0  0  0  0
   -2.6549    2.6517    0.2554 H   0  0  0  0  0  0  0  0  0  0  0  0
   -3.2489    1.8474    1.6247 H   0  0  0  0  0  0  0  0  0  0  0  0
  1  2  1  0
  2  3  1  0
  3  4  1  0
  4  5  1  0
  5  6  1  0
  6  7  1  0
  7  8  2  0
  8  9  1  0
  9 10  1  0
  9 11  1  0
  5 12  1  0
 12 13  1  0
 13 14  1  0
 13  3  1  0
 11  6  2  0
  1 15  1  0
  1 16  1  0
  1 17  1  0
  3 18  1  1
  4 19  1  0
  4 20  1  0
  8 21  1  0
 10 22  1  0
 10 23  1  0
 10 24  1  0
 12 25  1  0
 12 26  1  0
 13 27  1  1
 14 28  1  0
 14 29  1  0
M  END
$$$$

     RDKit          3D

 29 30  0  0  0  0  0  0  0  0999 V2000
   -3.0019    0.0646   -1.9503 C   0  0  0  0  0  0  0  0  0  0  0  0
   -2.0731    0.1697   -0.9230 O   0  0  0  0  0  0  0  0  0  0  0  0
   -1.8212   -1.0240   -0.2825 C   0  0  1  0  0  0  0  0  0  0  0  0
   -0.3165   -1.2300   -0.3053 C   0  0  0  0  0  0  0  0  0  0  0  0
    0.1291   -0.1711    0.5858 N   0  0  0  0  0  0  0  0  0  0  0  0
    1.4461    0.3669    0.5610 C   0  0  0  0  0  0  0  0  0  0  0  0
    1.9287    1.3486    1.3564 N   0  0  0  0  0  0  0  0  0  0  0  0
    3.2166    1.5686    1.0183 C   0  0  0  0  0  0  0  0  0  0  0  0
    3.5360    0.7311    0.0197 N   0  0  0  0  0  0  0  0  0  0  0  0
    4.8119    0.6133   -0.6596 C   0  0  0  0  0  0  0  0  0  0  0  0
    2.4699    0.0266   -0.2361 N   0  0  0  0  0  0  0  0  0  0  0  0
   -0.9600    0.2245    1.4687 C   0  0  0  0  0  0  0  0  0  0  0  0
   -2.0005   -0.8520    1.2329 C   0  0  1  0  0  0  0  0  0  0  0  0
   -3.3188   -0.4586    1.5810 N   0  0  0  0  0  0  0  0  0  0  0  0
   -3.1103    1.0923   -2.3782 H   0  0  0  0  0  0  0  0  0  0  0  0
   -2.7167   -0.6248   -2.7451 H   0  0  0  0  0  0  0  0  0  0  0  0
   -3.9799   -0.1910   -1.4705 H   0  0  0  0  0  0  0  0  0  0  0  0
   -2.3773   -1.8815   -0.6624 H   0  0  0  0  0  0  0  0  0  0  0  0
   -0.0587   -2.2345    0.0889 H   0  0  0  0  0  0  0  0  0  0  0  0
    0.0458   -1.0701   -1.3349 H   0  0  0  0  0  0  0  0  0  0  0  0
    3.8840    2.2789    1.4544 H   0  0  0  0  0  0  0  0  0  0  0  0
    4.7210    0.1896   -1.6663 H   0  0  0  0  0  0  0  0  0  0  0  0
    5.4959    0.0093   -0.0135 H   0  0  0  0  0  0  0  0  0  0  0  0
    5.2620    1.6373   -0.7993 H   0  0  0  0  0  0  0  0  0  0  0  0
   -0.6440    0.2753    2.5295 H   0  0  0  0  0  0  0  0  0  0  0  0
   -1.4313    1.1857    1.1267 H   0  0  0  0  0  0  0  0  0  0  0  0
   -1.6453   -1.7864    1.6987 H   0  0  0  0  0  0  0  0  0  0  0  0
   -4.0493   -0.8032    0.9308 H   0  0  0  0  0  0  0  0  0  0  0  0
   -3.4423    0.5448    1.8190 H   0  0  0  0  0  0  0  0  0  0  0  0
  1  2  1  0
  2  3  1  0
  3  4  1  0
  4  5  1  0
  5  6  1  0
  6  7  1  0
  7  8  2  0
  8  9  1  0
  9 10  1  0
  9 11  1  0
  5 12  1  0
 12 13  1  0
 13 14  1  0
 13  3  1  0
 11  6  2  0
  1 15  1  0
  1 16  1  0
  1 17  1  0
  3 18  1  6
  4 19  1  0
  4 20  1  0
  8 21  1  0
 10 22  1  0
 10 23  1  0
 10 24  1  0
 12 25  1  0
 12 26  1  0
 13 27  1  1
 14 28  1  0
 14 29  1  0
M  END
$$$$

     RDKit          3D

 29 30  0  0  0  0  0  0  0  0999 V2000
   -3.9422    1.6927    0.5283 C   0  0  0  0  0  0  0  0  0  0  0  0
   -3.3478    0.4302    0.6802 O   0  0  0  0  0  0  0  0  0  0  0  0
   -2.1153    0.4944    0.0381 C   0  0  1  0  0  0  0  0  0  0  0  0
   -0.9682    0.1732    0.9695 C   0  0  0  0  0  0  0  0  0  0  0  0
    0.0851   -0.1682    0.0331 N   0  0  0  0  0  0  0  0  0  0  0  0
    1.4741   -0.0871    0.3273 C   0  0  0  0  0  0  0  0  0  0  0  0
    2.0463    0.3080    1.4899 N   0  0  0  0  0  0  0  0  0  0  0  0
    3.3853    0.2466    1.3718 C   0  0  0  0  0  0  0  0  0  0  0  0
    3.6678   -0.1864    0.1376 N   0  0  0  0  0  0  0  0  0  0  0  0
    5.0178   -0.3915   -0.3939 C   0  0  0  0  0  0  0  0  0  0  0  0
    2.5188   -0.3840   -0.4816 N   0  0  0  0  0  0  0  0  0  0  0  0
   -0.4653   -0.6002   -1.2347 C   0  0  0  0  0  0  0  0  0  0  0  0
   -1.9706   -0.5512   -1.0322 C   0  0  1  0  0  0  0  0  0  0  0  0
   -2.4041   -1.8581   -0.6213 N   0  0  0  0  0  0  0  0  0  0  0  0
   -3.3150    2.4921    0.9831 H   0  0  0  0  0  0  0  0  0  0  0  0
   -4.0204    1.9594   -0.5629 H   0  0  0  0  0  0  0  0  0  0  0  0
   -4.9824    1.7055    0.9136 H   0  0  0  0  0  0  0  0  0  0  0  0
   -1.9127    1.4745   -0.4134 H   0  0  0  0  0  0  0  0  0  0  0  0
   -1.1917   -0.6512    1.6660 H   0  0  0  0  0  0  0  0  0  0  0  0
   -0.7368    1.0689    1.5603 H   0  0  0  0  0  0  0  0  0  0  0  0
    4.0525    0.5184    2.1834 H   0  0  0  0  0  0  0  0  0  0  0  0
    4.9372   -0.5054   -1.5083 H   0  0  0  0  0  0  0  0  0  0  0  0
    5.6499    0.5102   -0.2430 H   0  0  0  0  0  0  0  0  0  0  0  0
    5.4902   -1.2780    0.0383 H   0  0  0  0  0  0  0  0  0  0  0  0
   -0.1297   -1.6190   -1.5119 H   0  0  0  0  0  0  0  0  0  0  0  0
   -0.2206    0.1601   -2.0094 H   0  0  0  0  0  0  0  0  0  0  0  0
   -2.5051   -0.2731   -1.9583 H   0  0  0  0  0  0  0  0  0  0  0  0
   -2.1124   -2.1254    0.3320 H   0  0  0  0  0  0  0  0  0  0  0  0
   -1.9847   -2.5556   -1.2816 H   0  0  0  0  0  0  0  0  0  0  0  0
  1  2  1  0
  2  3  1  0
  3  4  1  0
  4  5  1  0
  5  6  1  0
  6  7  1  0
  7  8  2  0
  8  9  1  0
  9 10  1  0
  9 11  1  0
  5 12  1  0
 12 13  1  0
 13 14  1  0
 13  3  1  0
 11  6  2  0
  1 15  1  0
  1 16  1  0
  1 17  1  0
  3 18  1  6
  4 19  1  0
  4 20  1  0
  8 21  1  0
 10 22  1  0
 10 23  1  0
 10 24  1  0
 12 25  1  0
 12 26  1  0
 13 27  1  6
 14 28  1  0
 14 29  1  0
M  END
$$$$
