
     RDKit          3D

 29 28  0  0  0  0  0  0  0  0999 V2000
   -2.9536   -1.1273    1.1372 C   0  0  0  0  0  0  0  0  0  0  0  0
   -3.0031    0.0015    0.1401 C   0  0  2  0  0  0  0  0  0  0  0  0
   -4.2312   -0.0889   -0.6137 N   0  0  0  0  0  0  0  0  0  0  0  0
   -1.8154    0.0481   -0.7779 C   0  0  0  0  0  0  0  0  0  0  0  0
   -0.5265    0.2236    0.0231 C   0  0  0  0  0  0  0  0  0  0  0  0
    0.6170    0.2812   -0.8447 N   0  0  0  0  0  0  0  0  0  0  0  0
    1.8139    0.4322   -0.0587 C   0  0  0  0  0  0  0  0  0  0  0  0
    2.0600   -0.7618    0.7495 C   0  0  0  0  0  0  0  0  0  0  0  0
    3.1755   -0.7809    1.6464 N   0  0  0  0  0  0  0  0  0  0  0  0
    1.3705   -1.8083    0.7375 O   0  0  0  0  0  0  0  0  0  0  0  0
    2.9774    0.7180   -0.9329 C   0  0  0  0  0  0  0  0  0  0  0  0
    4.2588    0.9400   -0.3683 N   0  0  0  0  0  0  0  0  0  0  0  0
    2.8334    0.7657   -2.1686 O   0  0  0  0  0  0  0  0  0  0  0  0
   -2.5582   -0.7559    2.1284 H   0  0  0  0  0  0  0  0  0  0  0  0
   -3.9788   -1.5181    1.3651 H   0  0  0  0  0  0  0  0  0  0  0  0
   -2.3575   -1.9856    0.8278 H   0  0  0  0  0  0  0  0  0  0  0  0
   -3.0223    0.9752    0.7138 H   0  0  0  0  0  0  0  0  0  0  0  0
   -4.0300    0.1590   -1.6253 H   0  0  0  0  0  0  0  0  0  0  0  0
   -4.8980    0.6468   -0.2884 H   0  0  0  0  0  0  0  0  0  0  0  0
   -1.7437   -0.8405   -1.4294 H   0  0  0  0  0  0  0  0  0  0  0  0
   -1.8958    0.9580   -1.3991 H   0  0  0  0  0  0  0  0  0  0  0  0
   -0.5469    1.2143    0.5567 H   0  0  0  0  0  0  0  0  0  0  0  0
   -0.4721   -0.5502    0.7734 H   0  0  0  0  0  0  0  0  0  0  0  0
    0.5197    1.0715   -1.5354 H   0  0  0  0  0  0  0  0  0  0  0  0
    1.6999    1.2827    0.6656 H   0  0  0  0  0  0  0  0  0  0  0  0
    4.1671   -0.8802    1.3421 H   0  0  0  0  0  0  0  0  0  0  0  0
    2.9894   -0.6918    2.6620 H   0  0  0  0  0  0  0  0  0  0  0  0
    4.3871    1.3740    0.5825 H   0  0  0  0  0  0  0  0  0  0  0  0
    5.1636    0.6975   -0.8427 H   0  0  0  0  0  0  0  0  0  0  0  0
  1  2  1  0
  2  3  1  0
  2  4  1  0
  4  5  1  0
  5  6  1  0
  6  7  1  0
  7  8  1  0
  8  9  1  0
  8 10  2  0
  7 11  1  0
 11 12  1  0
 11 13  2  0
  1 14  1  0
  1 15  1  0
  1 16  1  0
  2 17  1  1
  3 18  1  0
  3 19  1  0
  4 20  1  0
  4 21  1  0
  5 22  1  0
  5 23  1  0
  6 24  1  0
  7 25  1  0
  9 26  1  0
  9 27  1  0
 12 28  1  0
 12 29  1  0
M  END
$$$$

     RDKit          3D

 29 28  0  0  0  0  0  0  0  0999 V2000
    4.0902   -0.2355    0.1839 C   0  0  0  0  0  0  0  0  0  0  0  0
    2.6053   -0.2255   -0.2081 C   0  0  2  0  0  0  0  0  0  0  0  0
    2.2149    1.1727   -0.2822 N   0  0  0  0  0  0  0  0  0  0  0  0
    1.8343   -0.8431    0.9037 C   0  0  0  0  0  0  0  0  0  0  0  0
    0.3632   -0.9492    0.7335 C   0  0  0  0  0  0  0  0  0  0  0  0
   -0.3417    0.2821    0.5401 N   0  0  0  0  0  0  0  0  0  0  0  0
   -1.7921    0.1125    0.4767 C   0  0  0  0  0  0  0  0  0  0  0  0
   -2.2112   -0.6824   -0.6879 C   0  0  0  0  0  0  0  0  0  0  0  0
   -3.5960   -1.0146   -0.8132 N   0  0  0  0  0  0  0  0  0  0  0  0
   -1.4625   -1.1094   -1.6001 O   0  0  0  0  0  0  0  0  0  0  0  0
   -2.3995    1.4656    0.3562 C   0  0  0  0  0  0  0  0  0  0  0  0
   -3.8073    1.5919    0.3696 N   0  0  0  0  0  0  0  0  0  0  0  0
   -1.6897    2.4909    0.2462 O   0  0  0  0  0  0  0  0  0  0  0  0
    4.6952   -0.6995   -0.6317 H   0  0  0  0  0  0  0  0  0  0  0  0
    4.4558    0.7987    0.2959 H   0  0  0  0  0  0  0  0  0  0  0  0
    4.2212   -0.7782    1.1386 H   0  0  0  0  0  0  0  0  0  0  0  0
    2.4777   -0.7432   -1.1741 H   0  0  0  0  0  0  0  0  0  0  0  0
    1.9071    1.4971    0.6825 H   0  0  0  0  0  0  0  0  0  0  0  0
    3.0858    1.7211   -0.5043 H   0  0  0  0  0  0  0  0  0  0  0  0
    2.0960   -0.2875    1.8463 H   0  0  0  0  0  0  0  0  0  0  0  0
    2.2505   -1.8686    1.0724 H   0  0  0  0  0  0  0  0  0  0  0  0
    0.0827   -1.6716   -0.0467 H   0  0  0  0  0  0  0  0  0  0  0  0
   -0.0389   -1.4048    1.6909 H   0  0  0  0  0  0  0  0  0  0  0  0
   -0.0892    0.7507   -0.3735 H   0  0  0  0  0  0  0  0  0  0  0  0
   -2.1310   -0.4079    1.3737 H   0  0  0  0  0  0  0  0  0  0  0  0
   -4.1860   -1.2265    0.0323 H   0  0  0  0  0  0  0  0  0  0  0  0
   -4.0310   -1.0495   -1.7551 H   0  0  0  0  0  0  0  0  0  0  0  0
   -4.2127    2.1850    1.1413 H   0  0  0  0  0  0  0  0  0  0  0  0
   -4.3911    1.1285   -0.3420 H   0  0  0  0  0  0  0  0  0  0  0  0
  1  2  1  0
  2  3  1  0
  2  4  1  0
  4  5  1  0
  5  6  1  0
  6  7  1  0
  7  8  1  0
  8  9  1  0
  8 10  2  0
  7 11  1  0
 11 12  1  0
 11 13  2  0
  1 14  1  0
  1 15  1  0
  1 16  1  0
  2 17  1  6
  3 18  1  0
  3 19  1  0
  4 20  1  0
  4 21  1  0
  5 22  1  0
  5 23  1  0
  6 24  1  0
  7 25  1  0
  9 26  1  0
  9 27  1  0
 12 28  1  0
 12 29  1  0
M  END
$$$$

     RDKit          3D

 29 28  0  0  0  0  0  0  0  0999 V2000
   -3.6079    0.6341    0.5150 C   0  0  0  0  0  0  0  0  0  0  0  0
   -2.8089   -0.1290   -0.5179 C   0  0  2  0  0  0  0  0  0  0  0  0
   -2.8059   -1.5517   -0.2821 N   0  0  0  0  0  0  0  0  0  0  0  0
   -1.4149    0.4481   -0.6702 C   0  0  0  0  0  0  0  0  0  0  0  0
   -0.6729    0.3787    0.6513 C   0  0  0  0  0  0  0  0  0  0  0  0
    0.6292    0.8800    0.6378 N   0  0  0  0  0  0  0  0  0  0  0  0
    1.6518    0.2645   -0.0523 C   0  0  0  0  0  0  0  0  0  0  0  0
    2.0531   -1.0926    0.3276 C   0  0  0  0  0  0  0  0  0  0  0  0
    3.1095   -1.6815   -0.4228 N   0  0  0  0  0  0  0  0  0  0  0  0
    1.5617   -1.7815    1.2414 O   0  0  0  0  0  0  0  0  0  0  0  0
    2.8802    1.1006    0.0046 C   0  0  0  0  0  0  0  0  0  0  0  0
    4.0894    0.7043   -0.6259 N   0  0  0  0  0  0  0  0  0  0  0  0
    2.8165    2.1846    0.6361 O   0  0  0  0  0  0  0  0  0  0  0  0
   -4.6817    0.6858    0.2579 H   0  0  0  0  0  0  0  0  0  0  0  0
   -3.2396    1.6607    0.6064 H   0  0  0  0  0  0  0  0  0  0  0  0
   -3.5263    0.0554    1.4729 H   0  0  0  0  0  0  0  0  0  0  0  0
   -3.3350    0.0237   -1.4949 H   0  0  0  0  0  0  0  0  0  0  0  0
   -2.8817   -1.7715    0.7418 H   0  0  0  0  0  0  0  0  0  0  0  0
   -3.6032   -2.0226   -0.7714 H   0  0  0  0  0  0  0  0  0  0  0  0
   -1.5480    1.5060   -0.9785 H   0  0  0  0  0  0  0  0  0  0  0  0
   -0.8982   -0.1124   -1.4482 H   0  0  0  0  0  0  0  0  0  0  0  0
   -1.2762    1.0318    1.3518 H   0  0  0  0  0  0  0  0  0  0  0  0
   -0.8042   -0.6446    1.0712 H   0  0  0  0  0  0  0  0  0  0  0  0
    0.8478    1.6959    1.2200 H   0  0  0  0  0  0  0  0  0  0  0  0
    1.3888    0.2170   -1.1526 H   0  0  0  0  0  0  0  0  0  0  0  0
    3.0966   -1.7554   -1.4596 H   0  0  0  0  0  0  0  0  0  0  0  0
    3.9323   -2.0562    0.0819 H   0  0  0  0  0  0  0  0  0  0  0  0
    4.1006    0.4447   -1.6249 H   0  0  0  0  0  0  0  0  0  0  0  0
    4.9472    0.6829   -0.0607 H   0  0  0  0  0  0  0  0  0  0  0  0
  1  2  1  0
  2  3  1  0
  2  4  1  0
  4  5  1  0
  5  6  1  0
  6  7  1  0
  7  8  1  0
  8  9  1  0
  8 10  2  0
  7 11  1  0
 11 12  1  0
 11 13  2  0
  1 14  1  0
  1 15  1  0
  1 16  1  0
  2 17  1  6
  3 18  1  0
  3 19  1  0
  4 20  1  0
  4 21  1  0
  5 22  1  0
  5 23  1  0
  6 24  1  0
  7 25  1  0
  9 26  1  0
  9 27  1  0
 12 28  1  0
 12 29  1  0
M  END
$$$$

     RDKit          3D

 29 28  0  0  0  0  0  0  0  0999 V2000
    3.3575    0.8702   -0.6347 C   0  0  0  0  0  0  0  0  0  0  0  0
    2.7589   -0.0687    0.3477 C   0  0  2  0  0  0  0  0  0  0  0  0
    3.7159   -1.2783    0.3628 N   0  0  0  0  0  0  0  0  0  0  0  0
    1.4588   -0.6959   -0.0503 C   0  0  0  0  0  0  0  0  0  0  0  0
    0.4359    0.3181   -0.5010 C   0  0  0  0  0  0  0  0  0  0  0  0
   -0.7931   -0.3619   -0.7646 N   0  0  0  0  0  0  0  0  0  0  0  0
   -1.8796    0.0906    0.1309 C   0  0  0  0  0  0  0  0  0  0  0  0
   -2.1230    1.5400   -0.1676 C   0  0  0  0  0  0  0  0  0  0  0  0
   -3.1633    2.2124    0.4664 N   0  0  0  0  0  0  0  0  0  0  0  0
   -1.4220    2.2017   -0.9655 O   0  0  0  0  0  0  0  0  0  0  0  0
   -3.0920   -0.5939   -0.3835 C   0  0  0  0  0  0  0  0  0  0  0  0
   -3.1938   -2.0164   -0.2309 N   0  0  0  0  0  0  0  0  0  0  0  0
   -4.0448   -0.0019   -0.9553 O   0  0  0  0  0  0  0  0  0  0  0  0
    3.7637    1.7878   -0.0926 H   0  0  0  0  0  0  0  0  0  0  0  0
    4.2005    0.4332   -1.1691 H   0  0  0  0  0  0  0  0  0  0  0  0
    2.6377    1.2748   -1.3555 H   0  0  0  0  0  0  0  0  0  0  0  0
    2.7892    0.2901    1.3592 H   0  0  0  0  0  0  0  0  0  0  0  0
    3.3996   -1.9115    1.0853 H   0  0  0  0  0  0  0  0  0  0  0  0
    3.5104   -1.6934   -0.6132 H   0  0  0  0  0  0  0  0  0  0  0  0
    1.5121   -1.5285   -0.7269 H   0  0  0  0  0  0  0  0  0  0  0  0
    0.9786   -1.1177    0.9129 H   0  0  0  0  0  0  0  0  0  0  0  0
    0.4386    1.2596   -0.0173 H   0  0  0  0  0  0  0  0  0  0  0  0
    0.7891    0.5415   -1.5874 H   0  0  0  0  0  0  0  0  0  0  0  0
   -0.7067   -1.4088   -0.5725 H   0  0  0  0  0  0  0  0  0  0  0  0
   -1.7340   -0.0986    1.1739 H   0  0  0  0  0  0  0  0  0  0  0  0
   -3.9987    2.6201   -0.0662 H   0  0  0  0  0  0  0  0  0  0  0  0
   -3.1759    2.3532    1.4880 H   0  0  0  0  0  0  0  0  0  0  0  0
   -3.4129   -2.4020    0.6717 H   0  0  0  0  0  0  0  0  0  0  0  0
   -3.0065   -2.6160   -1.0942 H   0  0  0  0  0  0  0  0  0  0  0  0
  1  2  1  0
  2  3  1  0
  2  4  1  0
  4  5  1  0
  5  6  1  0
  6  7  1  0
  7  8  1  0
  8  9  1  0
  8 10  2  0
  7 11  1  0
 11 12  1  0
 11 13  2  0
  1 14  1  0
  1 15  1  0
  1 16  1  0
  2 17  1  1
  3 18  1  0
  3 19  1  0
  4 20  1  0
  4 21  1  0
  5 22  1  0
  5 23  1  0
  6 24  1  0
  7 25  1  0
  9 26  1  0
  9 27  1  0
 12 28  1  0
 12 29  1  0
M  END
$$$$

     RDKit          3D

 29 28  0  0  0  0  0  0  0  0999 V2000
   -3.9155   -0.1240   -0.9212 C   0  0  0  0  0  0  0  0  0  0  0  0
   -2.5148   -0.4191   -0.4212 C   0  0  2  0  0  0  0  0  0  0  0  0
   -2.6387   -1.1184    0.8418 N   0  0  0  0  0  0  0  0  0  0  0  0
   -1.8702    0.9181   -0.1325 C   0  0  0  0  0  0  0  0  0  0  0  0
   -0.4702    0.7201    0.3736 C   0  0  0  0  0  0  0  0  0  0  0  0
    0.4036    0.0401   -0.5349 N   0  0  0  0  0  0  0  0  0  0  0  0
    1.7158   -0.0680    0.0901 C   0  0  0  0  0  0  0  0  0  0  0  0
    2.5165   -1.1131   -0.6056 C   0  0  0  0  0  0  0  0  0  0  0  0
    3.8384   -1.4027   -0.1750 N   0  0  0  0  0  0  0  0  0  0  0  0
    2.0348   -1.7472   -1.5761 O   0  0  0  0  0  0  0  0  0  0  0  0
    2.3910    1.2648   -0.0223 C   0  0  0  0  0  0  0  0  0  0  0  0
    3.6878    1.4312    0.5212 N   0  0  0  0  0  0  0  0  0  0  0  0
    1.8496    2.2463   -0.5827 O   0  0  0  0  0  0  0  0  0  0  0  0
   -3.8232    0.3517   -1.9158 H   0  0  0  0  0  0  0  0  0  0  0  0
   -4.5164   -1.0490   -0.9875 H   0  0  0  0  0  0  0  0  0  0  0  0
   -4.3797    0.5666   -0.1817 H   0  0  0  0  0  0  0  0  0  0  0  0
   -1.9377   -0.9944   -1.1695 H   0  0  0  0  0  0  0  0  0  0  0  0
   -2.5714   -2.1517    0.7150 H   0  0  0  0  0  0  0  0  0  0  0  0
   -3.5253   -0.8535    1.3408 H   0  0  0  0  0  0  0  0  0  0  0  0
   -2.4522    1.3739    0.6973 H   0  0  0  0  0  0  0  0  0  0  0  0
   -1.9051    1.5404   -1.0423 H   0  0  0  0  0  0  0  0  0  0  0  0
   -0.0716    1.7213    0.6074 H   0  0  0  0  0  0  0  0  0  0  0  0
   -0.5343    0.1322    1.3232 H   0  0  0  0  0  0  0  0  0  0  0  0
    0.0577   -0.8933   -0.8280 H   0  0  0  0  0  0  0  0  0  0  0  0
    1.5679   -0.3700    1.1376 H   0  0  0  0  0  0  0  0  0  0  0  0
    3.9825   -1.8211    0.7539 H   0  0  0  0  0  0  0  0  0  0  0  0
    4.6674   -1.2061   -0.7671 H   0  0  0  0  0  0  0  0  0  0  0  0
    4.3751    2.0956    0.0749 H   0  0  0  0  0  0  0  0  0  0  0  0
    4.0381    0.9294    1.3652 H   0  0  0  0  0  0  0  0  0  0  0  0
  1  2  1  0
  2  3  1  0
  2  4  1  0
  4  5  1  0
  5  6  1  0
  6  7  1  0
  7  8  1  0
  8  9  1  0
  8 10  2  0
  7 11  1  0
 11 12  1  0
 11 13  2  0
  1 14  1  0
  1 15  1  0
  1 16  1  0
  2 17  1  6
  3 18  1  0
  3 19  1  0
  4 20  1  0
  4 21  1  0
  5 22  1  0
  5 23  1  0
  6 24  1  0
  7 25  1  0
  9 26  1  0
  9 27  1  0
 12 28  1  0
 12 29  1  0
M  END
$$$$

     RDKit          3D

 29 28  0  0  0  0  0  0  0  0999 V2000
    2.7627   -1.1119    0.7311 C   0  0  0  0  0  0  0  0  0  0  0  0
    2.6284   -0.1660   -0.4012 C   0  0  2  0  0  0  0  0  0  0  0  0
    3.8241    0.6655   -0.5433 N   0  0  0  0  0  0  0  0  0  0  0  0
    1.4586    0.7194   -0.4539 C   0  0  0  0  0  0  0  0  0  0  0  0
    0.0984    0.2036   -0.5747 C   0  0  0  0  0  0  0  0  0  0  0  0
   -0.4121   -0.6026    0.4681 N   0  0  0  0  0  0  0  0  0  0  0  0
   -1.8858   -0.4988    0.4622 C   0  0  0  0  0  0  0  0  0  0  0  0
   -2.2926    0.7952    1.0511 C   0  0  0  0  0  0  0  0  0  0  0  0
   -1.8529    2.0814    0.7319 N   0  0  0  0  0  0  0  0  0  0  0  0
   -3.1668    0.7441    2.0223 O   0  0  0  0  0  0  0  0  0  0  0  0
   -2.5524   -0.8703   -0.7547 C   0  0  0  0  0  0  0  0  0  0  0  0
   -3.9249   -1.3458   -0.5993 N   0  0  0  0  0  0  0  0  0  0  0  0
   -2.1393   -0.8337   -1.9237 O   0  0  0  0  0  0  0  0  0  0  0  0
    2.6659   -2.1537    0.4382 H   0  0  0  0  0  0  0  0  0  0  0  0
    2.0941   -0.8359    1.5946 H   0  0  0  0  0  0  0  0  0  0  0  0
    3.8052   -1.0430    1.1958 H   0  0  0  0  0  0  0  0  0  0  0  0
    2.6509   -0.7769   -1.3950 H   0  0  0  0  0  0  0  0  0  0  0  0
    3.7278    1.2862   -1.3990 H   0  0  0  0  0  0  0  0  0  0  0  0
    3.8481    1.2782    0.3091 H   0  0  0  0  0  0  0  0  0  0  0  0
    1.5065    1.2778    0.5992 H   0  0  0  0  0  0  0  0  0  0  0  0
    1.6659    1.5653   -1.1646 H   0  0  0  0  0  0  0  0  0  0  0  0
    0.2011   -0.5913   -1.4720 H   0  0  0  0  0  0  0  0  0  0  0  0
   -0.5827    0.9681   -0.9709 H   0  0  0  0  0  0  0  0  0  0  0  0
   -0.0477   -1.5276    0.5717 H   0  0  0  0  0  0  0  0  0  0  0  0
   -2.1717   -1.2898    1.2321 H   0  0  0  0  0  0  0  0  0  0  0  0
   -2.3958    2.8269    0.3334 H   0  0  0  0  0  0  0  0  0  0  0  0
   -0.8141    2.2617    0.9782 H   0  0  0  0  0  0  0  0  0  0  0  0
   -4.0739   -2.3264   -0.8004 H   0  0  0  0  0  0  0  0  0  0  0  0
   -4.6253   -0.6999   -0.2665 H   0  0  0  0  0  0  0  0  0  0  0  0
  1  2  1  0
  2  3  1  0
  2  4  1  0
  4  5  1  0
  5  6  1  0
  6  7  1  0
  7  8  1  0
  8  9  1  0
  8 10  2  0
  7 11  1  0
 11 12  1  0
 11 13  2  0
  1 14  1  0
  1 15  1  0
  1 16  1  0
  2 17  1  6
  3 18  1  0
  3 19  1  0
  4 20  1  0
  4 21  1  0
  5 22  1  0
  5 23  1  0
  6 24  1  0
  7 25  1  0
  9 26  1  0
  9 27  1  0
 12 28  1  0
 12 29  1  0
M  END
$$$$

     RDKit          3D

 29 28  0  0  0  0  0  0  0  0999 V2000
    3.4076   -1.1472   -1.3507 C   0  0  0  0  0  0  0  0  0  0  0  0
    2.6638   -0.0766   -0.5847 C   0  0  2  0  0  0  0  0  0  0  0  0
    3.5411    0.3662    0.4922 N   0  0  0  0  0  0  0  0  0  0  0  0
    1.3554   -0.5971   -0.0262 C   0  0  0  0  0  0  0  0  0  0  0  0
    0.6732    0.5141    0.7179 C   0  0  0  0  0  0  0  0  0  0  0  0
   -0.5660    0.1852    1.3033 N   0  0  0  0  0  0  0  0  0  0  0  0
   -1.6407   -0.0844    0.3851 C   0  0  0  0  0  0  0  0  0  0  0  0
   -2.8081   -0.4764    1.2566 C   0  0  0  0  0  0  0  0  0  0  0  0
   -4.0116   -0.8117    0.5736 N   0  0  0  0  0  0  0  0  0  0  0  0
   -2.7479   -0.5130    2.5046 O   0  0  0  0  0  0  0  0  0  0  0  0
   -2.0313    1.1836   -0.2808 C   0  0  0  0  0  0  0  0  0  0  0  0
   -3.0520    1.1750   -1.2636 N   0  0  0  0  0  0  0  0  0  0  0  0
   -1.4884    2.2842   -0.0094 O   0  0  0  0  0  0  0  0  0  0  0  0
    3.8106   -1.9310   -0.6766 H   0  0  0  0  0  0  0  0  0  0  0  0
    2.7399   -1.6380   -2.0898 H   0  0  0  0  0  0  0  0  0  0  0  0
    4.2710   -0.7056   -1.8877 H   0  0  0  0  0  0  0  0  0  0  0  0
    2.4845    0.7787   -1.2568 H   0  0  0  0  0  0  0  0  0  0  0  0
    3.4181   -0.2669    1.3267 H   0  0  0  0  0  0  0  0  0  0  0  0
    3.3413    1.3586    0.7187 H   0  0  0  0  0  0  0  0  0  0  0  0
    1.5745   -1.4892    0.5577 H   0  0  0  0  0  0  0  0  0  0  0  0
    0.7264   -0.8514   -0.9279 H   0  0  0  0  0  0  0  0  0  0  0  0
    0.6654    1.4038    0.0592 H   0  0  0  0  0  0  0  0  0  0  0  0
    1.3708    0.7924    1.5627 H   0  0  0  0  0  0  0  0  0  0  0  0
   -0.4087   -0.6030    1.9806 H   0  0  0  0  0  0  0  0  0  0  0  0
   -1.4280   -0.8220   -0.3831 H   0  0  0  0  0  0  0  0  0  0  0  0
   -4.8925   -0.2362    0.6954 H   0  0  0  0  0  0  0  0  0  0  0  0
   -4.0599   -1.6247   -0.0588 H   0  0  0  0  0  0  0  0  0  0  0  0
   -3.1868    2.0126   -1.9095 H   0  0  0  0  0  0  0  0  0  0  0  0
   -3.7218    0.3852   -1.4288 H   0  0  0  0  0  0  0  0  0  0  0  0
  1  2  1  0
  2  3  1  0
  2  4  1  0
  4  5  1  0
  5  6  1  0
  6  7  1  0
  7  8  1  0
  8  9  1  0
  8 10  2  0
  7 11  1  0
 11 12  1  0
 11 13  2  0
  1 14  1  0
  1 15  1  0
  1 16  1  0
  2 17  1  6
  3 18  1  0
  3 19  1  0
  4 20  1  0
  4 21  1  0
  5 22  1  0
  5 23  1  0
  6 24  1  0
  7 25  1  0
  9 26  1  0
  9 27  1  0
 12 28  1  0
 12 29  1  0
M  END
$$$$

     RDKit          3D

 29 28  0  0  0  0  0  0  0  0999 V2000
   -3.9805   -0.3058    0.1764 C   0  0  0  0  0  0  0  0  0  0  0  0
   -2.5597    0.0470    0.5950 C   0  0  2  0  0  0  0  0  0  0  0  0
   -2.6328    1.1449    1.4938 N   0  0  0  0  0  0  0  0  0  0  0  0
   -1.8264    0.4569   -0.6557 C   0  0  0  0  0  0  0  0  0  0  0  0
   -0.3847    0.8473   -0.4140 C   0  0  0  0  0  0  0  0  0  0  0  0
    0.2966   -0.2474    0.2022 N   0  0  0  0  0  0  0  0  0  0  0  0
    1.7196   -0.0704    0.3268 C   0  0  0  0  0  0  0  0  0  0  0  0
    2.4198   -0.0344   -0.9756 C   0  0  0  0  0  0  0  0  0  0  0  0
    3.8088    0.2250   -1.0180 N   0  0  0  0  0  0  0  0  0  0  0  0
    1.8081   -0.2280   -2.0451 O   0  0  0  0  0  0  0  0  0  0  0  0
    2.2566   -1.2042    1.1103 C   0  0  0  0  0  0  0  0  0  0  0  0
    3.6352   -1.3290    1.3454 N   0  0  0  0  0  0  0  0  0  0  0  0
    1.4821   -2.0832    1.5807 O   0  0  0  0  0  0  0  0  0  0  0  0
   -3.9096   -1.1976   -0.5110 H   0  0  0  0  0  0  0  0  0  0  0  0
   -4.4111    0.5359   -0.4079 H   0  0  0  0  0  0  0  0  0  0  0  0
   -4.6078   -0.5957    1.0317 H   0  0  0  0  0  0  0  0  0  0  0  0
   -2.0734   -0.8580    1.0221 H   0  0  0  0  0  0  0  0  0  0  0  0
   -3.5464    1.3112    1.9260 H   0  0  0  0  0  0  0  0  0  0  0  0
   -2.0455    1.9535    1.2841 H   0  0  0  0  0  0  0  0  0  0  0  0
   -2.3421    1.3286   -1.1304 H   0  0  0  0  0  0  0  0  0  0  0  0
   -1.9165   -0.3717   -1.3801 H   0  0  0  0  0  0  0  0  0  0  0  0
    0.1053    1.1120   -1.3699 H   0  0  0  0  0  0  0  0  0  0  0  0
   -0.3598    1.7836    0.1899 H   0  0  0  0  0  0  0  0  0  0  0  0
    0.1679   -1.0894   -0.4385 H   0  0  0  0  0  0  0  0  0  0  0  0
    1.8711    0.9005    0.8707 H   0  0  0  0  0  0  0  0  0  0  0  0
    4.5088   -0.5293   -0.9531 H   0  0  0  0  0  0  0  0  0  0  0  0
    4.0995    1.2325   -1.1219 H   0  0  0  0  0  0  0  0  0  0  0  0
    4.1695   -2.2404    1.3589 H   0  0  0  0  0  0  0  0  0  0  0  0
    4.2475   -0.4945    1.5298 H   0  0  0  0  0  0  0  0  0  0  0  0
  1  2  1  0
  2  3  1  0
  2  4  1  0
  4  5  1  0
  5  6  1  0
  6  7  1  0
  7  8  1  0
  8  9  1  0
  8 10  2  0
  7 11  1  0
 11 12  1  0
 11 13  2  0
  1 14  1  0
  1 15  1  0
  1 16  1  0
  2 17  1  1
  3 18  1  0
  3 19  1  0
  4 20  1  0
  4 21  1  0
  5 22  1  0
  5 23  1  0
  6 24  1  0
  7 25  1  0
  9 26  1  0
  9 27  1  0
 12 28  1  0
 12 29  1  0
M  END
$$$$
