
     RDKit          3D

 29 29  0  0  0  0  0  0  0  0999 V2000
   -3.5288    1.0622    0.8483 C   0  0  0  0  0  0  0  0  0  0  0  0
   -3.1671   -0.3144    0.6800 N   0  0  0  0  0  0  0  0  0  0  0  0
   -3.3871   -0.7353   -0.6888 C   0  0  0  0  0  0  0  0  0  0  0  0
   -2.2022   -1.6913   -0.5048 C   0  0  0  0  0  0  0  0  0  0  0  0
   -1.8094   -0.6555    0.5582 C   0  0  1  0  0  0  0  0  0  0  0  0
   -0.8649    0.3384   -0.0475 C   0  0  0  0  0  0  0  0  0  0  0  0
    0.4559   -0.1712   -0.0906 O   0  0  0  0  0  0  0  0  0  0  0  0
    1.4929    0.5873   -0.6149 C   0  0  0  0  0  0  0  0  0  0  0  0
    1.1859    1.7391   -1.0423 O   0  0  0  0  0  0  0  0  0  0  0  0
    2.8901    0.0998   -0.6822 C   0  0  1  0  0  0  0  0  0  0  0  0
    3.6815    1.0848   -1.2549 O   0  0  0  0  0  0  0  0  0  0  0  0
    3.4202   -0.1729    0.7254 C   0  0  0  0  0  0  0  0  0  0  0  0
    4.7937   -0.6213    0.6736 N   0  0  0  0  0  0  0  0  0  0  0  0
   -4.4992    1.2194    0.3231 H   0  0  0  0  0  0  0  0  0  0  0  0
   -3.7011    1.3566    1.9004 H   0  0  0  0  0  0  0  0  0  0  0  0
   -2.8153    1.7713    0.3849 H   0  0  0  0  0  0  0  0  0  0  0  0
   -3.1340    0.1249   -1.3710 H   0  0  0  0  0  0  0  0  0  0  0  0
   -4.3464   -1.2202   -0.8680 H   0  0  0  0  0  0  0  0  0  0  0  0
   -2.5826   -2.6386   -0.0838 H   0  0  0  0  0  0  0  0  0  0  0  0
   -1.5230   -1.7527   -1.3581 H   0  0  0  0  0  0  0  0  0  0  0  0
   -1.3480   -1.2011    1.4070 H   0  0  0  0  0  0  0  0  0  0  0  0
   -0.8422    1.2299    0.6190 H   0  0  0  0  0  0  0  0  0  0  0  0
   -1.1249    0.6319   -1.0793 H   0  0  0  0  0  0  0  0  0  0  0  0
    2.9036   -0.8258   -1.2792 H   0  0  0  0  0  0  0  0  0  0  0  0
    3.5846    1.8919   -0.6851 H   0  0  0  0  0  0  0  0  0  0  0  0
    2.8326   -0.9805    1.2112 H   0  0  0  0  0  0  0  0  0  0  0  0
    3.3354    0.7279    1.3442 H   0  0  0  0  0  0  0  0  0  0  0  0
    4.9180   -1.1402   -0.2300 H   0  0  0  0  0  0  0  0  0  0  0  0
    5.3817    0.2555    0.5946 H   0  0  0  0  0  0  0  0  0  0  0  0
  1  2  1  0
  2  3  1  0
  3  4  1  0
  4  5  1  0
  5  6  1  0
  6  7  1  0
  7  8  1  0
  8  9  2  0
  8 10  1  0
 10 11  1  0
 10 12  1  0
 12 13  1  0
  5  2  1  0
  1 14  1  0
  1 15  1  0
  1 16  1  0
  3 17  1  0
  3 18  1  0
  4 19  1  0
  4 20  1  0
  5 21  1  1
  6 22  1  0
  6 23  1  0
 10 24  1  6
 11 25  1  0
 12 26  1  0
 12 27  1  0
 13 28  1  0
 13 29  1  0
M  END
$$$$

     RDKit          3D

 29 29  0  0  0  0  0  0  0  0999 V2000
   -3.5136    0.6297   -0.4146 C   0  0  0  0  0  0  0  0  0  0  0  0
   -3.0215   -0.3461    0.5196 N   0  0  0  0  0  0  0  0  0  0  0  0
   -3.0063   -1.6879   -0.0108 C   0  0  0  0  0  0  0  0  0  0  0  0
   -1.5307   -1.7734    0.2017 C   0  0  0  0  0  0  0  0  0  0  0  0
   -1.6130   -0.3817    0.7455 C   0  0  1  0  0  0  0  0  0  0  0  0
   -0.7804    0.6252   -0.0095 C   0  0  0  0  0  0  0  0  0  0  0  0
    0.5598    0.4267    0.3477 O   0  0  0  0  0  0  0  0  0  0  0  0
    1.5541    1.2192   -0.1994 C   0  0  0  0  0  0  0  0  0  0  0  0
    1.2434    2.1046   -1.0077 O   0  0  0  0  0  0  0  0  0  0  0  0
    2.9877    1.0399    0.1540 C   0  0  1  0  0  0  0  0  0  0  0  0
    3.1511    0.0086    1.0680 O   0  0  0  0  0  0  0  0  0  0  0  0
    3.7421    0.7107   -1.1232 C   0  0  0  0  0  0  0  0  0  0  0  0
    3.2025   -0.5226   -1.6619 N   0  0  0  0  0  0  0  0  0  0  0  0
   -3.3807    0.2120   -1.4349 H   0  0  0  0  0  0  0  0  0  0  0  0
   -3.0230    1.6015   -0.3475 H   0  0  0  0  0  0  0  0  0  0  0  0
   -4.6055    0.7675   -0.1882 H   0  0  0  0  0  0  0  0  0  0  0  0
   -3.3234   -1.7544   -1.0852 H   0  0  0  0  0  0  0  0  0  0  0  0
   -3.6221   -2.4129    0.5747 H   0  0  0  0  0  0  0  0  0  0  0  0
   -0.9396   -1.8197   -0.7356 H   0  0  0  0  0  0  0  0  0  0  0  0
   -1.2765   -2.5278    0.9605 H   0  0  0  0  0  0  0  0  0  0  0  0
   -1.3507   -0.3463    1.8310 H   0  0  0  0  0  0  0  0  0  0  0  0
   -0.8989    0.4437   -1.0771 H   0  0  0  0  0  0  0  0  0  0  0  0
   -1.0954    1.6359    0.3246 H   0  0  0  0  0  0  0  0  0  0  0  0
    3.4146    1.9640    0.5954 H   0  0  0  0  0  0  0  0  0  0  0  0
    2.5364    0.1559    1.8312 H   0  0  0  0  0  0  0  0  0  0  0  0
    4.7895    0.4918   -0.8257 H   0  0  0  0  0  0  0  0  0  0  0  0
    3.6911    1.5534   -1.8148 H   0  0  0  0  0  0  0  0  0  0  0  0
    3.8505   -1.3218   -1.5937 H   0  0  0  0  0  0  0  0  0  0  0  0
    2.2585   -0.6955   -1.2507 H   0  0  0  0  0  0  0  0  0  0  0  0
  1  2  1  0
  2  3  1  0
  3  4  1  0
  4  5  1  0
  5  6  1  0
  6  7  1  0
  7  8  1  0
  8  9  2  0
  8 10  1  0
 10 11  1  0
 10 12  1  0
 12 13  1  0
  5  2  1  0
  1 14  1  0
  1 15  1  0
  1 16  1  0
  3 17  1  0
  3 18  1  0
  4 19  1  0
  4 20  1  0
  5 21  1  1
  6 22  1  0
  6 23  1  0
 10 24  1  1
 11 25  1  0
 12 26  1  0
 12 27  1  0
 13 28  1  0
 13 29  1  0
M  END
$$$$

     RDKit          3D

 29 29  0  0  0  0  0  0  0  0999 V2000
   -3.6064   -1.3722   -0.4423 C   0  0  0  0  0  0  0  0  0  0  0  0
   -2.5043   -0.6725    0.2377 N   0  0  0  0  0  0  0  0  0  0  0  0
   -3.0289    0.4777    0.9837 C   0  0  0  0  0  0  0  0  0  0  0  0
   -3.0654    1.2176   -0.3483 C   0  0  0  0  0  0  0  0  0  0  0  0
   -1.9109    0.2614   -0.6763 C   0  0  1  0  0  0  0  0  0  0  0  0
   -0.6196    0.8825   -0.2571 C   0  0  0  0  0  0  0  0  0  0  0  0
    0.4083   -0.0784   -0.0393 O   0  0  0  0  0  0  0  0  0  0  0  0
    1.6443    0.4624    0.3576 C   0  0  0  0  0  0  0  0  0  0  0  0
    1.7989    1.7146    0.5016 O   0  0  0  0  0  0  0  0  0  0  0  0
    2.8159   -0.3876    0.6254 C   0  0  1  0  0  0  0  0  0  0  0  0
    2.5343   -1.7337    0.4375 O   0  0  0  0  0  0  0  0  0  0  0  0
    3.9933    0.0662   -0.2467 C   0  0  0  0  0  0  0  0  0  0  0  0
    5.1837   -0.6800    0.0711 N   0  0  0  0  0  0  0  0  0  0  0  0
   -4.5903   -0.9062   -0.1719 H   0  0  0  0  0  0  0  0  0  0  0  0
   -3.5873   -2.4600   -0.2197 H   0  0  0  0  0  0  0  0  0  0  0  0
   -3.5234   -1.2716   -1.5448 H   0  0  0  0  0  0  0  0  0  0  0  0
   -4.0183    0.3140    1.4354 H   0  0  0  0  0  0  0  0  0  0  0  0
   -2.2869    0.8627    1.6862 H   0  0  0  0  0  0  0  0  0  0  0  0
   -3.9781    1.0074   -0.9241 H   0  0  0  0  0  0  0  0  0  0  0  0
   -2.7607    2.2690   -0.2646 H   0  0  0  0  0  0  0  0  0  0  0  0
   -1.8967   -0.0925   -1.7047 H   0  0  0  0  0  0  0  0  0  0  0  0
   -0.6738    1.5239    0.6216 H   0  0  0  0  0  0  0  0  0  0  0  0
   -0.2615    1.5153   -1.1021 H   0  0  0  0  0  0  0  0  0  0  0  0
    3.1222   -0.2071    1.6902 H   0  0  0  0  0  0  0  0  0  0  0  0
    2.1560   -2.1495    1.2499 H   0  0  0  0  0  0  0  0  0  0  0  0
    3.7105   -0.0528   -1.3115 H   0  0  0  0  0  0  0  0  0  0  0  0
    4.1738    1.1274   -0.0253 H   0  0  0  0  0  0  0  0  0  0  0  0
    4.8974   -1.5351    0.6030 H   0  0  0  0  0  0  0  0  0  0  0  0
    5.8739   -0.1030    0.6347 H   0  0  0  0  0  0  0  0  0  0  0  0
  1  2  1  0
  2  3  1  0
  3  4  1  0
  4  5  1  0
  5  6  1  0
  6  7  1  0
  7  8  1  0
  8  9  2  0
  8 10  1  0
 10 11  1  0
 10 12  1  0
 12 13  1  0
  5  2  1  0
  1 14  1  0
  1 15  1  0
  1 16  1  0
  3 17  1  0
  3 18  1  0
  4 19  1  0
  4 20  1  0
  5 21  1  6
  6 22  1  0
  6 23  1  0
 10 24  1  1
 11 25  1  0
 12 26  1  0
 12 27  1  0
 13 28  1  0
 13 29  1  0
M  END
$$$$

     RDKit          3D

 29 29  0  0  0  0  0  0  0  0999 V2000
    3.4901   -0.7400    0.9154 C   0  0  0  0  0  0  0  0  0  0  0  0
    3.1421    0.5258    0.3221 N   0  0  0  0  0  0  0  0  0  0  0  0
    3.3100    0.5380   -1.1134 C   0  0  0  0  0  0  0  0  0  0  0  0
    1.8731   -0.0254   -1.1820 C   0  0  0  0  0  0  0  0  0  0  0  0
    1.7143    0.7154    0.0929 C   0  0  1  0  0  0  0  0  0  0  0  0
    0.8298    0.2106    1.1626 C   0  0  0  0  0  0  0  0  0  0  0  0
   -0.5170    0.4417    0.8822 O   0  0  0  0  0  0  0  0  0  0  0  0
   -1.2777   -0.0478   -0.1278 C   0  0  0  0  0  0  0  0  0  0  0  0
   -0.7757   -0.8290   -0.9646 O   0  0  0  0  0  0  0  0  0  0  0  0
   -2.7071    0.3170   -0.2768 C   0  0  1  0  0  0  0  0  0  0  0  0
   -3.2775   -0.3077   -1.3851 O   0  0  0  0  0  0  0  0  0  0  0  0
   -3.4432   -0.1825    0.9682 C   0  0  0  0  0  0  0  0  0  0  0  0
   -4.8546    0.1647    0.8514 N   0  0  0  0  0  0  0  0  0  0  0  0
    4.5798   -0.7132    1.1230 H   0  0  0  0  0  0  0  0  0  0  0  0
    3.0030   -0.8856    1.9130 H   0  0  0  0  0  0  0  0  0  0  0  0
    3.3096   -1.6072    0.2698 H   0  0  0  0  0  0  0  0  0  0  0  0
    3.3255    1.5627   -1.4894 H   0  0  0  0  0  0  0  0  0  0  0  0
    4.0527   -0.1676   -1.5200 H   0  0  0  0  0  0  0  0  0  0  0  0
    1.3253    0.4292   -2.0394 H   0  0  0  0  0  0  0  0  0  0  0  0
    1.9240   -1.1221   -1.1466 H   0  0  0  0  0  0  0  0  0  0  0  0
    1.5362    1.7980   -0.0806 H   0  0  0  0  0  0  0  0  0  0  0  0
    0.9864   -0.8642    1.4128 H   0  0  0  0  0  0  0  0  0  0  0  0
    1.0673    0.7908    2.0916 H   0  0  0  0  0  0  0  0  0  0  0  0
   -2.8449    1.4245   -0.3488 H   0  0  0  0  0  0  0  0  0  0  0  0
   -3.3545   -1.2656   -1.2473 H   0  0  0  0  0  0  0  0  0  0  0  0
   -2.9796    0.2362    1.8650 H   0  0  0  0  0  0  0  0  0  0  0  0
   -3.2944   -1.2871    0.9893 H   0  0  0  0  0  0  0  0  0  0  0  0
   -5.2298   -0.2976   -0.0008 H   0  0  0  0  0  0  0  0  0  0  0  0
   -4.9134    1.1881    0.7715 H   0  0  0  0  0  0  0  0  0  0  0  0
  1  2  1  0
  2  3  1  0
  3  4  1  0
  4  5  1  0
  5  6  1  0
  6  7  1  0
  7  8  1  0
  8  9  2  0
  8 10  1  0
 10 11  1  0
 10 12  1  0
 12 13  1  0
  5  2  1  0
  1 14  1  0
  1 15  1  0
  1 16  1  0
  3 17  1  0
  3 18  1  0
  4 19  1  0
  4 20  1  0
  5 21  1  6
  6 22  1  0
  6 23  1  0
 10 24  1  6
 11 25  1  0
 12 26  1  0
 12 27  1  0
 13 28  1  0
 13 29  1  0
M  END
$$$$

     RDKit          3D

 29 29  0  0  0  0  0  0  0  0999 V2000
   -3.7766   -0.3527    0.7999 C   0  0  0  0  0  0  0  0  0  0  0  0
   -3.1746   -0.0555   -0.4488 N   0  0  0  0  0  0  0  0  0  0  0  0
   -2.8809    1.3020   -0.7586 C   0  0  0  0  0  0  0  0  0  0  0  0
   -1.6747    0.8194   -1.5396 C   0  0  0  0  0  0  0  0  0  0  0  0
   -1.8144   -0.4064   -0.6600 C   0  0  1  0  0  0  0  0  0  0  0  0
   -0.8793   -0.3195    0.5026 C   0  0  0  0  0  0  0  0  0  0  0  0
    0.4127   -0.7202    0.0335 O   0  0  0  0  0  0  0  0  0  0  0  0
    1.5266   -0.7652    0.8262 C   0  0  0  0  0  0  0  0  0  0  0  0
    1.4437   -0.4457    2.0272 O   0  0  0  0  0  0  0  0  0  0  0  0
    2.8499   -1.1885    0.2948 C   0  0  1  0  0  0  0  0  0  0  0  0
    2.7814   -1.5124   -1.0556 O   0  0  0  0  0  0  0  0  0  0  0  0
    3.8915   -0.0874    0.4760 C   0  0  0  0  0  0  0  0  0  0  0  0
    3.4818    1.0540   -0.2956 N   0  0  0  0  0  0  0  0  0  0  0  0
   -3.2168   -1.0584    1.4275 H   0  0  0  0  0  0  0  0  0  0  0  0
   -4.7638   -0.8596    0.5866 H   0  0  0  0  0  0  0  0  0  0  0  0
   -4.0748    0.5675    1.3792 H   0  0  0  0  0  0  0  0  0  0  0  0
   -2.6242    1.9654    0.0838 H   0  0  0  0  0  0  0  0  0  0  0  0
   -3.6108    1.7724   -1.4613 H   0  0  0  0  0  0  0  0  0  0  0  0
   -0.7470    1.3994   -1.3738 H   0  0  0  0  0  0  0  0  0  0  0  0
   -1.8740    0.5385   -2.5868 H   0  0  0  0  0  0  0  0  0  0  0  0
   -1.7139   -1.3593   -1.2171 H   0  0  0  0  0  0  0  0  0  0  0  0
   -0.7717    0.7030    0.8836 H   0  0  0  0  0  0  0  0  0  0  0  0
   -1.1802   -0.9638    1.3595 H   0  0  0  0  0  0  0  0  0  0  0  0
    3.2035   -2.0937    0.8484 H   0  0  0  0  0  0  0  0  0  0  0  0
    2.7008   -0.6963   -1.5859 H   0  0  0  0  0  0  0  0  0  0  0  0
    4.0291    0.1647    1.5369 H   0  0  0  0  0  0  0  0  0  0  0  0
    4.8448   -0.5130    0.1008 H   0  0  0  0  0  0  0  0  0  0  0  0
    4.1833    1.2362   -1.0444 H   0  0  0  0  0  0  0  0  0  0  0  0
    3.4287    1.8749    0.3283 H   0  0  0  0  0  0  0  0  0  0  0  0
  1  2  1  0
  2  3  1  0
  3  4  1  0
  4  5  1  0
  5  6  1  0
  6  7  1  0
  7  8  1  0
  8  9  2  0
  8 10  1  0
 10 11  1  0
 10 12  1  0
 12 13  1  0
  5  2  1  0
  1 14  1  0
  1 15  1  0
  1 16  1  0
  3 17  1  0
  3 18  1  0
  4 19  1  0
  4 20  1  0
  5 21  1  6
  6 22  1  0
  6 23  1  0
 10 24  1  1
 11 25  1  0
 12 26  1  0
 12 27  1  0
 13 28  1  0
 13 29  1  0
M  END
$$$$

     RDKit          3D

 29 29  0  0  0  0  0  0  0  0999 V2000
   -3.1076    1.3447   -0.3107 C   0  0  0  0  0  0  0  0  0  0  0  0
   -2.9067    0.6379    0.9320 N   0  0  0  0  0  0  0  0  0  0  0  0
   -3.6134   -0.6198    0.9361 C   0  0  0  0  0  0  0  0  0  0  0  0
   -2.3340   -1.3519    0.6952 C   0  0  0  0  0  0  0  0  0  0  0  0
   -1.6522   -0.0385    1.0735 C   0  0  1  0  0  0  0  0  0  0  0  0
   -0.6586    0.3371   -0.0009 C   0  0  0  0  0  0  0  0  0  0  0  0
    0.5717   -0.3422    0.1594 O   0  0  0  0  0  0  0  0  0  0  0  0
    1.5642   -0.0663   -0.7845 C   0  0  0  0  0  0  0  0  0  0  0  0
    1.3148    0.7530   -1.7048 O   0  0  0  0  0  0  0  0  0  0  0  0
    2.8948   -0.6963   -0.7475 C   0  0  1  0  0  0  0  0  0  0  0  0
    3.6445   -0.2171   -1.8132 O   0  0  0  0  0  0  0  0  0  0  0  0
    3.6247   -0.3284    0.5516 C   0  0  0  0  0  0  0  0  0  0  0  0
    3.7278    1.1035    0.5907 N   0  0  0  0  0  0  0  0  0  0  0  0
   -2.9999    0.6481   -1.1782 H   0  0  0  0  0  0  0  0  0  0  0  0
   -4.1486    1.7530   -0.2911 H   0  0  0  0  0  0  0  0  0  0  0  0
   -2.4240    2.2108   -0.4183 H   0  0  0  0  0  0  0  0  0  0  0  0
   -4.0587   -0.9118    1.9175 H   0  0  0  0  0  0  0  0  0  0  0  0
   -4.3249   -0.7497    0.0828 H   0  0  0  0  0  0  0  0  0  0  0  0
   -2.1314   -2.1705    1.4092 H   0  0  0  0  0  0  0  0  0  0  0  0
   -2.1857   -1.6430   -0.3463 H   0  0  0  0  0  0  0  0  0  0  0  0
   -1.2443   -0.0177    2.0881 H   0  0  0  0  0  0  0  0  0  0  0  0
   -0.4266    1.4174   -0.0060 H   0  0  0  0  0  0  0  0  0  0  0  0
   -1.0294    0.0744   -1.0134 H   0  0  0  0  0  0  0  0  0  0  0  0
    2.8471   -1.7990   -0.8554 H   0  0  0  0  0  0  0  0  0  0  0  0
    3.8504   -0.9107   -2.4827 H   0  0  0  0  0  0  0  0  0  0  0  0
    4.6433   -0.7481    0.5352 H   0  0  0  0  0  0  0  0  0  0  0  0
    3.0837   -0.7674    1.3888 H   0  0  0  0  0  0  0  0  0  0  0  0
    2.8722    1.6127    0.3520 H   0  0  0  0  0  0  0  0  0  0  0  0
    4.6066    1.4858    0.2213 H   0  0  0  0  0  0  0  0  0  0  0  0
  1  2  1  0
  2  3  1  0
  3  4  1  0
  4  5  1  0
  5  6  1  0
  6  7  1  0
  7  8  1  0
  8  9  2  0
  8 10  1  0
 10 11  1  0
 10 12  1  0
 12 13  1  0
  5  2  1  0
  1 14  1  0
  1 15  1  0
  1 16  1  0
  3 17  1  0
  3 18  1  0
  4 19  1  0
  4 20  1  0
  5 21  1  1
  6 22  1  0
  6 23  1  0
 10 24  1  6
 11 25  1  0
 12 26  1  0
 12 27  1  0
 13 28  1  0
 13 29  1  0
M  END
$$$$

     RDKit          3D

 29 29  0  0  0  0  0  0  0  0999 V2000
   -2.7923   -1.8507    0.7055 C   0  0  0  0  0  0  0  0  0  0  0  0
   -2.8865   -0.7814   -0.2477 N   0  0  0  0  0  0  0  0  0  0  0  0
   -3.5050    0.4380    0.2595 C   0  0  0  0  0  0  0  0  0  0  0  0
   -2.0967    0.8968    0.6543 C   0  0  0  0  0  0  0  0  0  0  0  0
   -1.6323   -0.0464   -0.4435 C   0  0  1  0  0  0  0  0  0  0  0  0
   -0.4519   -0.9059   -0.1486 C   0  0  0  0  0  0  0  0  0  0  0  0
    0.7785   -0.3271   -0.3571 O   0  0  0  0  0  0  0  0  0  0  0  0
    1.2811    0.7738    0.2713 C   0  0  0  0  0  0  0  0  0  0  0  0
    0.5951    1.3568    1.1394 O   0  0  0  0  0  0  0  0  0  0  0  0
    2.6550    1.3116   -0.0562 C   0  0  1  0  0  0  0  0  0  0  0  0
    2.8615    2.4189    0.7438 O   0  0  0  0  0  0  0  0  0  0  0  0
    3.6583    0.2165    0.2254 C   0  0  0  0  0  0  0  0  0  0  0  0
    3.4143   -0.9124   -0.6199 N   0  0  0  0  0  0  0  0  0  0  0  0
   -3.8078   -2.2765    0.8274 H   0  0  0  0  0  0  0  0  0  0  0  0
   -2.1604   -2.6442    0.2620 H   0  0  0  0  0  0  0  0  0  0  0  0
   -2.4041   -1.5393    1.6955 H   0  0  0  0  0  0  0  0  0  0  0  0
   -4.1862    0.3013    1.1196 H   0  0  0  0  0  0  0  0  0  0  0  0
   -3.9480    1.0236   -0.5451 H   0  0  0  0  0  0  0  0  0  0  0  0
   -1.9496    1.9459    0.3825 H   0  0  0  0  0  0  0  0  0  0  0  0
   -1.8942    0.5770    1.6782 H   0  0  0  0  0  0  0  0  0  0  0  0
   -1.6089    0.4123   -1.4304 H   0  0  0  0  0  0  0  0  0  0  0  0
   -0.5531   -1.4046    0.8492 H   0  0  0  0  0  0  0  0  0  0  0  0
   -0.5173   -1.7815   -0.8734 H   0  0  0  0  0  0  0  0  0  0  0  0
    2.7336    1.6001   -1.1097 H   0  0  0  0  0  0  0  0  0  0  0  0
    2.7431    3.2286    0.2125 H   0  0  0  0  0  0  0  0  0  0  0  0
    4.6643    0.6568    0.0312 H   0  0  0  0  0  0  0  0  0  0  0  0
    3.6453   -0.1178    1.2678 H   0  0  0  0  0  0  0  0  0  0  0  0
    3.7448   -1.8128   -0.2469 H   0  0  0  0  0  0  0  0  0  0  0  0
    3.6195   -0.7577   -1.6183 H   0  0  0  0  0  0  0  0  0  0  0  0
  1  2  1  0
  2  3  1  0
  3  4  1  0
  4  5  1  0
  5  6  1  0
  6  7  1  0
  7  8  1  0
  8  9  2  0
  8 10  1  0
 10 11  1  0
 10 12  1  0
 12 13  1  0
  5  2  1  0
  1 14  1  0
  1 15  1  0
  1 16  1  0
  3 17  1  0
  3 18  1  0
  4 19  1  0
  4 20  1  0
  5 21  1  6
  6 22  1  0
  6 23  1  0
 10 24  1  6
 11 25  1  0
 12 26  1  0
 12 27  1  0
 13 28  1  0
 13 29  1  0
M  END
$$$$

     RDKit          3D

 29 29  0  0  0  0  0  0  0  0999 V2000
   -1.6692   -1.1473    1.4012 C   0  0  0  0  0  0  0  0  0  0  0  0
   -1.9092    0.1644    0.7692 N   0  0  0  0  0  0  0  0  0  0  0  0
   -3.3469    0.3380    0.6888 C   0  0  0  0  0  0  0  0  0  0  0  0
   -3.2012    0.8155   -0.7134 C   0  0  0  0  0  0  0  0  0  0  0  0
   -1.8380    0.1121   -0.6451 C   0  0  1  0  0  0  0  0  0  0  0  0
   -0.7998    0.8818   -1.3742 C   0  0  0  0  0  0  0  0  0  0  0  0
    0.5252    0.6047   -1.0903 O   0  0  0  0  0  0  0  0  0  0  0  0
    1.1953    0.7367    0.0968 C   0  0  0  0  0  0  0  0  0  0  0  0
    0.5419    1.1704    1.0798 O   0  0  0  0  0  0  0  0  0  0  0  0
    2.6273    0.4029    0.2900 C   0  0  1  0  0  0  0  0  0  0  0  0
    3.0126    0.6452    1.6066 O   0  0  0  0  0  0  0  0  0  0  0  0
    2.9261   -1.0427   -0.0122 C   0  0  0  0  0  0  0  0  0  0  0  0
    4.3665   -1.2196    0.1725 N   0  0  0  0  0  0  0  0  0  0  0  0
   -1.4281   -1.0407    2.4723 H   0  0  0  0  0  0  0  0  0  0  0  0
   -0.8178   -1.6024    0.8550 H   0  0  0  0  0  0  0  0  0  0  0  0
   -2.5336   -1.8190    1.2890 H   0  0  0  0  0  0  0  0  0  0  0  0
   -3.7412    1.0893    1.4193 H   0  0  0  0  0  0  0  0  0  0  0  0
   -3.9373   -0.6102    0.7124 H   0  0  0  0  0  0  0  0  0  0  0  0
   -3.8660    0.3394   -1.4571 H   0  0  0  0  0  0  0  0  0  0  0  0
   -3.0387    1.8920   -0.8615 H   0  0  0  0  0  0  0  0  0  0  0  0
   -1.9683   -0.9451   -0.9949 H   0  0  0  0  0  0  0  0  0  0  0  0
   -1.0533    1.9728   -1.3099 H   0  0  0  0  0  0  0  0  0  0  0  0
   -0.9481    0.6508   -2.4720 H   0  0  0  0  0  0  0  0  0  0  0  0
    3.2993    1.0143   -0.3508 H   0  0  0  0  0  0  0  0  0  0  0  0
    3.0465    1.6274    1.7283 H   0  0  0  0  0  0  0  0  0  0  0  0
    2.7092   -1.3252   -1.0577 H   0  0  0  0  0  0  0  0  0  0  0  0
    2.3888   -1.7359    0.6719 H   0  0  0  0  0  0  0  0  0  0  0  0
    4.8652   -0.2868    0.1095 H   0  0  0  0  0  0  0  0  0  0  0  0
    4.5928   -1.6827    1.0690 H   0  0  0  0  0  0  0  0  0  0  0  0
  1  2  1  0
  2  3  1  0
  3  4  1  0
  4  5  1  0
  5  6  1  0
  6  7  1  0
  7  8  1  0
  8  9  2  0
  8 10  1  0
 10 11  1  0
 10 12  1  0
 12 13  1  0
  5  2  1  0
  1 14  1  0
  1 15  1  0
  1 16  1  0
  3 17  1  0
  3 18  1  0
  4 19  1  0
  4 20  1  0
  5 21  1  1
  6 22  1  0
  6 23  1  0
 10 24  1  6
 11 25  1  0
 12 26  1  0
 12 27  1  0
 13 28  1  0
 13 29  1  0
M  END
$$$$
