
     RDKit          3D

 24 24  0  0  0  0  0  0  0  0999 V2000
    4.8942   -0.4695   -1.0227 N   0  0  0  0  0  0  0  0  0  0  0  0
    3.7263   -0.8503   -0.5707 C   0  0  0  0  0  0  0  0  0  0  0  0
    3.5806   -2.0915   -0.0640 N   0  0  0  0  0  0  0  0  0  0  0  0
    2.4134   -2.4794    0.3905 N   0  0  0  0  0  0  0  0  0  0  0  0
    1.3203   -1.6795    0.3772 C   0  0  0  0  0  0  0  0  0  0  0  0
    1.4540   -0.4238   -0.1318 C   0  0  0  0  0  0  0  0  0  0  0  0
    0.3315    0.4809   -0.1768 N   0  0  0  0  0  0  0  0  0  0  0  0
   -0.9309    0.0355    0.3244 C   0  0  0  0  0  0  0  0  0  0  0  0
   -1.9396    1.1538    0.1689 C   0  0  2  0  0  0  0  0  0  0  0  0
   -1.4645    2.2300    0.9019 O   0  0  0  0  0  0  0  0  0  0  0  0
   -3.2227    0.6785    0.7223 C   0  0  0  0  0  0  0  0  0  0  0  0
   -3.8970   -0.4162    0.1330 N   0  0  0  0  0  0  0  0  0  0  0  0
   -3.7038    1.2579    1.7192 O   0  0  0  0  0  0  0  0  0  0  0  0
    2.6573   -0.0342   -0.5965 N   0  0  0  0  0  0  0  0  0  0  0  0
    4.9579    0.5057   -1.4074 H   0  0  0  0  0  0  0  0  0  0  0  0
    0.3769   -2.0279    0.7577 H   0  0  0  0  0  0  0  0  0  0  0  0
    0.4449    1.4408   -0.5689 H   0  0  0  0  0  0  0  0  0  0  0  0
   -1.2784   -0.8929   -0.1795 H   0  0  0  0  0  0  0  0  0  0  0  0
   -0.8273   -0.1488    1.4137 H   0  0  0  0  0  0  0  0  0  0  0  0
   -2.0294    1.4103   -0.9099 H   0  0  0  0  0  0  0  0  0  0  0  0
   -1.3188    3.0327    0.3369 H   0  0  0  0  0  0  0  0  0  0  0  0
   -3.3975   -1.2413   -0.2576 H   0  0  0  0  0  0  0  0  0  0  0  0
   -4.9386   -0.4027    0.0845 H   0  0  0  0  0  0  0  0  0  0  0  0
    2.7914    0.9319   -0.9964 H   0  0  0  0  0  0  0  0  0  0  0  0
  1  2  2  3
  2  3  1  0
  3  4  2  0
  4  5  1  0
  5  6  2  0
  6  7  1  0
  7  8  1  0
  8  9  1  0
  9 10  1  0
  9 11  1  0
 11 12  1  0
 11 13  2  0
  6 14  1  0
 14  2  1  0
  1 15  1  0
  5 16  1  0
  7 17  1  0
  8 18  1  0
  8 19  1  0
  9 20  1  6
 10 21  1  0
 12 22  1  0
 12 23  1  0
 14 24  1  0
M  END
$$$$

     RDKit          3D

 24 24  0  0  0  0  0  0  0  0999 V2000
    3.7775    1.8107   -0.2963 N   0  0  0  0  0  0  0  0  0  0  0  0
    3.3065    0.5984   -0.2486 C   0  0  0  0  0  0  0  0  0  0  0  0
    4.1185   -0.4504   -0.3114 N   0  0  0  0  0  0  0  0  0  0  0  0
    3.6843   -1.6859   -0.2668 N   0  0  0  0  0  0  0  0  0  0  0  0
    2.3570   -1.9204   -0.1521 C   0  0  0  0  0  0  0  0  0  0  0  0
    1.5010   -0.8440   -0.0857 C   0  0  0  0  0  0  0  0  0  0  0  0
    0.1114   -1.0932    0.0343 N   0  0  0  0  0  0  0  0  0  0  0  0
   -0.7972    0.0388    0.1048 C   0  0  0  0  0  0  0  0  0  0  0  0
   -2.2338   -0.4224    0.2302 C   0  0  2  0  0  0  0  0  0  0  0  0
   -2.5839   -1.1979   -0.8738 O   0  0  0  0  0  0  0  0  0  0  0  0
   -3.1701    0.6909    0.4019 C   0  0  0  0  0  0  0  0  0  0  0  0
   -3.0229    1.6245    1.4615 N   0  0  0  0  0  0  0  0  0  0  0  0
   -4.1161    0.8309   -0.3898 O   0  0  0  0  0  0  0  0  0  0  0  0
    1.9847    0.4049   -0.1347 N   0  0  0  0  0  0  0  0  0  0  0  0
    4.8041    1.9732   -0.3848 H   0  0  0  0  0  0  0  0  0  0  0  0
    1.9453   -2.9107   -0.1109 H   0  0  0  0  0  0  0  0  0  0  0  0
   -0.2689   -2.0617    0.0727 H   0  0  0  0  0  0  0  0  0  0  0  0
   -0.7132    0.5676   -0.8749 H   0  0  0  0  0  0  0  0  0  0  0  0
   -0.4996    0.7362    0.8859 H   0  0  0  0  0  0  0  0  0  0  0  0
   -2.2824   -1.0991    1.1158 H   0  0  0  0  0  0  0  0  0  0  0  0
   -3.2738   -0.7791   -1.4305 H   0  0  0  0  0  0  0  0  0  0  0  0
   -3.6579    1.5882    2.2970 H   0  0  0  0  0  0  0  0  0  0  0  0
   -2.2978    2.3732    1.4653 H   0  0  0  0  0  0  0  0  0  0  0  0
    1.3273    1.2271   -0.0837 H   0  0  0  0  0  0  0  0  0  0  0  0
  1  2  2  3
  2  3  1  0
  3  4  2  0
  4  5  1  0
  5  6  2  0
  6  7  1  0
  7  8  1  0
  8  9  1  0
  9 10  1  0
  9 11  1  0
 11 12  1  0
 11 13  2  0
  6 14  1  0
 14  2  1  0
  1 15  1  0
  5 16  1  0
  7 17  1  0
  8 18  1  0
  8 19  1  0
  9 20  1  1
 10 21  1  0
 12 22  1  0
 12 23  1  0
 14 24  1  0
M  END
$$$$

     RDKit          3D

 24 24  0  0  0  0  0  0  0  0999 V2000
   -4.0141    1.5628    1.4725 N   0  0  0  0  0  0  0  0  0  0  0  0
   -3.4918    0.5702    0.8772 C   0  0  0  0  0  0  0  0  0  0  0  0
   -4.2389   -0.4929    0.5885 N   0  0  0  0  0  0  0  0  0  0  0  0
   -3.7715   -1.5528   -0.0231 N   0  0  0  0  0  0  0  0  0  0  0  0
   -2.4770   -1.5694   -0.3765 C   0  0  0  0  0  0  0  0  0  0  0  0
   -1.6727   -0.4925   -0.0967 C   0  0  0  0  0  0  0  0  0  0  0  0
   -0.3011   -0.5514   -0.4902 N   0  0  0  0  0  0  0  0  0  0  0  0
    0.6086    0.5467   -0.2288 C   0  0  0  0  0  0  0  0  0  0  0  0
    1.9658    0.1827   -0.7586 C   0  0  2  0  0  0  0  0  0  0  0  0
    2.3846   -0.9627   -0.1059 O   0  0  0  0  0  0  0  0  0  0  0  0
    2.9109    1.2820   -0.4608 C   0  0  0  0  0  0  0  0  0  0  0  0
    4.0270    1.0492    0.3794 N   0  0  0  0  0  0  0  0  0  0  0  0
    2.7609    2.4375   -0.9325 O   0  0  0  0  0  0  0  0  0  0  0  0
   -2.1794    0.5669    0.5251 N   0  0  0  0  0  0  0  0  0  0  0  0
   -3.5628    2.4383    1.7541 H   0  0  0  0  0  0  0  0  0  0  0  0
   -2.1091   -2.4552   -0.8815 H   0  0  0  0  0  0  0  0  0  0  0  0
    0.0619   -1.3963   -0.9752 H   0  0  0  0  0  0  0  0  0  0  0  0
    0.6646    0.6598    0.8658 H   0  0  0  0  0  0  0  0  0  0  0  0
    0.2135    1.4854   -0.6812 H   0  0  0  0  0  0  0  0  0  0  0  0
    1.9309   -0.0245   -1.8625 H   0  0  0  0  0  0  0  0  0  0  0  0
    2.9420   -1.5497   -0.6946 H   0  0  0  0  0  0  0  0  0  0  0  0
    4.8788    0.5581   -0.0042 H   0  0  0  0  0  0  0  0  0  0  0  0
    4.0438    1.3468    1.3769 H   0  0  0  0  0  0  0  0  0  0  0  0
   -1.5749    1.3708    0.7329 H   0  0  0  0  0  0  0  0  0  0  0  0
  1  2  2  3
  2  3  1  0
  3  4  2  0
  4  5  1  0
  5  6  2  0
  6  7  1  0
  7  8  1  0
  8  9  1  0
  9 10  1  0
  9 11  1  0
 11 12  1  0
 11 13  2  0
  6 14  1  0
 14  2  1  0
  1 15  1  0
  5 16  1  0
  7 17  1  0
  8 18  1  0
  8 19  1  0
  9 20  1  6
 10 21  1  0
 12 22  1  0
 12 23  1  0
 14 24  1  0
M  END
$$$$

     RDKit          3D

 24 24  0  0  0  0  0  0  0  0999 V2000
   -2.7362    2.5381    0.7042 N   0  0  0  0  0  0  0  0  0  0  0  0
   -2.7040    1.2291    0.6379 C   0  0  0  0  0  0  0  0  0  0  0  0
   -3.7440    0.4944    1.0602 N   0  0  0  0  0  0  0  0  0  0  0  0
   -3.7107   -0.8279    0.9929 N   0  0  0  0  0  0  0  0  0  0  0  0
   -2.6472   -1.4831    0.5054 C   0  0  0  0  0  0  0  0  0  0  0  0
   -1.5410   -0.7557    0.0547 C   0  0  0  0  0  0  0  0  0  0  0  0
   -0.4465   -1.4560   -0.4830 N   0  0  0  0  0  0  0  0  0  0  0  0
    0.7754   -0.9385   -0.9926 C   0  0  0  0  0  0  0  0  0  0  0  0
    1.8233   -0.6330    0.0516 C   0  0  2  0  0  0  0  0  0  0  0  0
    1.3275    0.3007    0.9450 O   0  0  0  0  0  0  0  0  0  0  0  0
    3.0386   -0.0636   -0.5703 C   0  0  0  0  0  0  0  0  0  0  0  0
    3.4816    1.2158   -0.2089 N   0  0  0  0  0  0  0  0  0  0  0  0
    3.6586   -0.7352   -1.4153 O   0  0  0  0  0  0  0  0  0  0  0  0
   -1.6348    0.5788    0.1477 N   0  0  0  0  0  0  0  0  0  0  0  0
   -3.5995    2.9695    1.0963 H   0  0  0  0  0  0  0  0  0  0  0  0
   -2.6466   -2.5727    0.4617 H   0  0  0  0  0  0  0  0  0  0  0  0
   -0.5415   -2.5245   -0.5150 H   0  0  0  0  0  0  0  0  0  0  0  0
    0.5551    0.0391   -1.5089 H   0  0  0  0  0  0  0  0  0  0  0  0
    1.1788   -1.5888   -1.7991 H   0  0  0  0  0  0  0  0  0  0  0  0
    2.1183   -1.5798    0.5861 H   0  0  0  0  0  0  0  0  0  0  0  0
    1.5557    1.1986    0.5947 H   0  0  0  0  0  0  0  0  0  0  0  0
    4.2485    1.3634    0.4831 H   0  0  0  0  0  0  0  0  0  0  0  0
    3.0414    2.0565   -0.6358 H   0  0  0  0  0  0  0  0  0  0  0  0
   -0.8508    1.1748   -0.1927 H   0  0  0  0  0  0  0  0  0  0  0  0
  1  2  2  3
  2  3  1  0
  3  4  2  0
  4  5  1  0
  5  6  2  0
  6  7  1  0
  7  8  1  0
  8  9  1  0
  9 10  1  0
  9 11  1  0
 11 12  1  0
 11 13  2  0
  6 14  1  0
 14  2  1  0
  1 15  1  0
  5 16  1  0
  7 17  1  0
  8 18  1  0
  8 19  1  0
  9 20  1  1
 10 21  1  0
 12 22  1  0
 12 23  1  0
 14 24  1  0
M  END
$$$$

     RDKit          3D

 24 24  0  0  0  0  0  0  0  0999 V2000
    4.6009   -0.5479    1.7103 N   0  0  0  0  0  0  0  0  0  0  0  0
    3.7229   -0.1481    0.8333 C   0  0  0  0  0  0  0  0  0  0  0  0
    4.1038    0.6998   -0.1418 N   0  0  0  0  0  0  0  0  0  0  0  0
    3.1774    1.0781   -1.0095 N   0  0  0  0  0  0  0  0  0  0  0  0
    1.9096    0.6663   -0.9632 C   0  0  0  0  0  0  0  0  0  0  0  0
    1.5040   -0.1951    0.0201 C   0  0  0  0  0  0  0  0  0  0  0  0
    0.1627   -0.6538    0.0997 N   0  0  0  0  0  0  0  0  0  0  0  0
   -0.7781   -0.2016   -0.8717 C   0  0  0  0  0  0  0  0  0  0  0  0
   -2.1707   -0.7105   -0.7094 C   0  0  2  0  0  0  0  0  0  0  0  0
   -2.9518   -0.1738   -1.7577 O   0  0  0  0  0  0  0  0  0  0  0  0
   -2.7359   -0.3034    0.6029 C   0  0  0  0  0  0  0  0  0  0  0  0
   -3.8722    0.5095    0.7452 N   0  0  0  0  0  0  0  0  0  0  0  0
   -2.1555   -0.7161    1.6380 O   0  0  0  0  0  0  0  0  0  0  0  0
    2.4551   -0.5820    0.9089 N   0  0  0  0  0  0  0  0  0  0  0  0
    5.5718   -0.2254    1.6655 H   0  0  0  0  0  0  0  0  0  0  0  0
    1.2023    1.0161   -1.7066 H   0  0  0  0  0  0  0  0  0  0  0  0
   -0.0550   -1.3120    0.8825 H   0  0  0  0  0  0  0  0  0  0  0  0
   -0.3756   -0.4647   -1.8769 H   0  0  0  0  0  0  0  0  0  0  0  0
   -0.8281    0.9216   -0.7761 H   0  0  0  0  0  0  0  0  0  0  0  0
   -2.2238   -1.8081   -0.7736 H   0  0  0  0  0  0  0  0  0  0  0  0
   -3.8480   -0.5666   -1.7879 H   0  0  0  0  0  0  0  0  0  0  0  0
   -4.7634    0.1140    1.0929 H   0  0  0  0  0  0  0  0  0  0  0  0
   -3.8423    1.5157    0.5065 H   0  0  0  0  0  0  0  0  0  0  0  0
    2.1898   -1.2331    1.6684 H   0  0  0  0  0  0  0  0  0  0  0  0
  1  2  2  3
  2  3  1  0
  3  4  2  0
  4  5  1  0
  5  6  2  0
  6  7  1  0
  7  8  1  0
  8  9  1  0
  9 10  1  0
  9 11  1  0
 11 12  1  0
 11 13  2  0
  6 14  1  0
 14  2  1  0
  1 15  1  0
  5 16  1  0
  7 17  1  0
  8 18  1  0
  8 19  1  0
  9 20  1  1
 10 21  1  0
 12 22  1  0
 12 23  1  0
 14 24  1  0
M  END
$$$$

     RDKit          3D

 24 24  0  0  0  0  0  0  0  0999 V2000
    4.2850   -0.6346    1.7060 N   0  0  0  0  0  0  0  0  0  0  0  0
    3.4799   -0.4964    0.7196 C   0  0  0  0  0  0  0  0  0  0  0  0
    3.8955   -0.7095   -0.5386 N   0  0  0  0  0  0  0  0  0  0  0  0
    3.0687   -0.5684   -1.5620 N   0  0  0  0  0  0  0  0  0  0  0  0
    1.7736   -0.2038   -1.3729 C   0  0  0  0  0  0  0  0  0  0  0  0
    1.3333    0.0181   -0.0878 C   0  0  0  0  0  0  0  0  0  0  0  0
   -0.0035    0.3980    0.1505 N   0  0  0  0  0  0  0  0  0  0  0  0
   -0.9065    0.5523   -0.9639 C   0  0  0  0  0  0  0  0  0  0  0  0
   -2.2948    0.9638   -0.5040 C   0  0  2  0  0  0  0  0  0  0  0  0
   -2.1680    2.1664    0.1571 O   0  0  0  0  0  0  0  0  0  0  0  0
   -2.9232   -0.0640    0.3391 C   0  0  0  0  0  0  0  0  0  0  0  0
   -3.1799   -1.3840   -0.0687 N   0  0  0  0  0  0  0  0  0  0  0  0
   -3.2585    0.2645    1.5214 O   0  0  0  0  0  0  0  0  0  0  0  0
    2.1993   -0.1344    0.9244 N   0  0  0  0  0  0  0  0  0  0  0  0
    5.2612   -0.9125    1.5260 H   0  0  0  0  0  0  0  0  0  0  0  0
    1.1163   -0.0932   -2.2057 H   0  0  0  0  0  0  0  0  0  0  0  0
   -0.3284    0.5635    1.1209 H   0  0  0  0  0  0  0  0  0  0  0  0
   -0.9265   -0.4074   -1.5267 H   0  0  0  0  0  0  0  0  0  0  0  0
   -0.5316    1.3485   -1.6269 H   0  0  0  0  0  0  0  0  0  0  0  0
   -2.9253    1.0689   -1.4180 H   0  0  0  0  0  0  0  0  0  0  0  0
   -2.2566    2.0207    1.1221 H   0  0  0  0  0  0  0  0  0  0  0  0
   -3.8209   -1.5824   -0.8710 H   0  0  0  0  0  0  0  0  0  0  0  0
   -2.7441   -2.2099    0.4097 H   0  0  0  0  0  0  0  0  0  0  0  0
    1.8549    0.0358    1.8883 H   0  0  0  0  0  0  0  0  0  0  0  0
  1  2  2  3
  2  3  1  0
  3  4  2  0
  4  5  1  0
  5  6  2  0
  6  7  1  0
  7  8  1  0
  8  9  1  0
  9 10  1  0
  9 11  1  0
 11 12  1  0
 11 13  2  0
  6 14  1  0
 14  2  1  0
  1 15  1  0
  5 16  1  0
  7 17  1  0
  8 18  1  0
  8 19  1  0
  9 20  1  6
 10 21  1  0
 12 22  1  0
 12 23  1  0
 14 24  1  0
M  END
$$$$

     RDKit          3D

 24 24  0  0  0  0  0  0  0  0999 V2000
   -4.6880    0.7883    1.2474 N   0  0  0  0  0  0  0  0  0  0  0  0
   -3.6895    0.0842    0.8027 C   0  0  0  0  0  0  0  0  0  0  0  0
   -3.8681   -1.2233    0.5690 N   0  0  0  0  0  0  0  0  0  0  0  0
   -2.8922   -1.9929    0.1166 N   0  0  0  0  0  0  0  0  0  0  0  0
   -1.7084   -1.4140   -0.1016 C   0  0  0  0  0  0  0  0  0  0  0  0
   -1.4611   -0.0679    0.1205 C   0  0  0  0  0  0  0  0  0  0  0  0
   -0.1903    0.5131   -0.1227 N   0  0  0  0  0  0  0  0  0  0  0  0
    0.8603   -0.3313   -0.6132 C   0  0  0  0  0  0  0  0  0  0  0  0
    2.1596    0.3678   -0.8374 C   0  0  2  0  0  0  0  0  0  0  0  0
    3.0707   -0.5856   -1.3122 O   0  0  0  0  0  0  0  0  0  0  0  0
    2.6465    0.9264    0.4317 C   0  0  0  0  0  0  0  0  0  0  0  0
    3.8740    0.4778    0.9854 N   0  0  0  0  0  0  0  0  0  0  0  0
    2.0129    1.8001    1.0610 O   0  0  0  0  0  0  0  0  0  0  0  0
   -2.5103    0.6673    0.5867 N   0  0  0  0  0  0  0  0  0  0  0  0
   -5.6076    0.3587    1.4214 H   0  0  0  0  0  0  0  0  0  0  0  0
   -0.8609   -2.0001   -0.4765 H   0  0  0  0  0  0  0  0  0  0  0  0
   -0.0848    1.5328    0.0692 H   0  0  0  0  0  0  0  0  0  0  0  0
    0.4923   -0.8518   -1.5221 H   0  0  0  0  0  0  0  0  0  0  0  0
    1.0298   -1.1325    0.1502 H   0  0  0  0  0  0  0  0  0  0  0  0
    2.0671    1.1632   -1.6117 H   0  0  0  0  0  0  0  0  0  0  0  0
    3.0401   -1.3758   -0.6965 H   0  0  0  0  0  0  0  0  0  0  0  0
    4.2227   -0.4676    0.7458 H   0  0  0  0  0  0  0  0  0  0  0  0
    4.4313    1.0759    1.6258 H   0  0  0  0  0  0  0  0  0  0  0  0
   -2.3461    1.6873    0.7617 H   0  0  0  0  0  0  0  0  0  0  0  0
  1  2  2  3
  2  3  1  0
  3  4  2  0
  4  5  1  0
  5  6  2  0
  6  7  1  0
  7  8  1  0
  8  9  1  0
  9 10  1  0
  9 11  1  0
 11 12  1  0
 11 13  2  0
  6 14  1  0
 14  2  1  0
  1 15  1  0
  5 16  1  0
  7 17  1  0
  8 18  1  0
  8 19  1  0
  9 20  1  6
 10 21  1  0
 12 22  1  0
 12 23  1  0
 14 24  1  0
M  END
$$$$

     RDKit          3D

 24 24  0  0  0  0  0  0  0  0999 V2000
   -4.8619    0.0097   -1.3768 N   0  0  0  0  0  0  0  0  0  0  0  0
   -3.8656   -0.0887   -0.5749 C   0  0  0  0  0  0  0  0  0  0  0  0
   -4.0539   -0.3100    0.7403 N   0  0  0  0  0  0  0  0  0  0  0  0
   -3.0406   -0.4151    1.5861 N   0  0  0  0  0  0  0  0  0  0  0  0
   -1.7790   -0.2990    1.1304 C   0  0  0  0  0  0  0  0  0  0  0  0
   -1.5628   -0.0756   -0.1915 C   0  0  0  0  0  0  0  0  0  0  0  0
   -0.2219    0.0456   -0.6623 N   0  0  0  0  0  0  0  0  0  0  0  0
    0.8929   -0.0673    0.2515 C   0  0  0  0  0  0  0  0  0  0  0  0
    2.1679    0.1044   -0.5416 C   0  0  2  0  0  0  0  0  0  0  0  0
    2.2159   -0.8971   -1.5060 O   0  0  0  0  0  0  0  0  0  0  0  0
    3.3468    0.0520    0.3620 C   0  0  0  0  0  0  0  0  0  0  0  0
    3.5414    0.9561    1.4254 N   0  0  0  0  0  0  0  0  0  0  0  0
    4.1978   -0.8539    0.1446 O   0  0  0  0  0  0  0  0  0  0  0  0
   -2.6028    0.0284   -1.0362 N   0  0  0  0  0  0  0  0  0  0  0  0
   -4.7048    0.1804   -2.3883 H   0  0  0  0  0  0  0  0  0  0  0  0
   -0.9550   -0.3892    1.8478 H   0  0  0  0  0  0  0  0  0  0  0  0
   -0.0501    0.2178   -1.6807 H   0  0  0  0  0  0  0  0  0  0  0  0
    0.8675   -1.0869    0.6823 H   0  0  0  0  0  0  0  0  0  0  0  0
    0.8157    0.7044    1.0460 H   0  0  0  0  0  0  0  0  0  0  0  0
    2.1760    1.1082   -1.0282 H   0  0  0  0  0  0  0  0  0  0  0  0
    2.6577   -1.7112   -1.1425 H   0  0  0  0  0  0  0  0  0  0  0  0
    3.9217    0.6315    2.3301 H   0  0  0  0  0  0  0  0  0  0  0  0
    3.3031    1.9536    1.3043 H   0  0  0  0  0  0  0  0  0  0  0  0
   -2.4059    0.2018   -2.0564 H   0  0  0  0  0  0  0  0  0  0  0  0
  1  2  2  3
  2  3  1  0
  3  4  2  0
  4  5  1  0
  5  6  2  0
  6  7  1  0
  7  8  1  0
  8  9  1  0
  9 10  1  0
  9 11  1  0
 11 12  1  0
 11 13  2  0
  6 14  1  0
 14  2  1  0
  1 15  1  0
  5 16  1  0
  7 17  1  0
  8 18  1  0
  8 19  1  0
  9 20  1  6
 10 21  1  0
 12 22  1  0
 12 23  1  0
 14 24  1  0
M  END
$$$$
