
     RDKit          3D

 34 34  0  0  0  0  0  0  0  0999 V2000
    2.9020    0.4447    0.9065 C   0  0  0  0  0  0  0  0  0  0  0  0
    2.8161    0.5105   -0.5953 C   0  0  1  0  0  0  0  0  0  0  0  0
    4.1291    0.6134   -1.1728 N   0  0  0  0  0  0  0  0  0  0  0  0
    2.0325   -0.6607   -1.1763 C   0  0  0  0  0  0  0  0  0  0  0  0
    0.6029   -0.6455   -0.6069 C   0  0  0  0  0  0  0  0  0  0  0  0
    0.0175    0.5886   -0.9784 N   0  0  0  0  0  0  0  0  0  0  0  0
   -1.2950    0.8655   -0.5635 C   0  0  2  0  0  0  0  0  0  0  0  0
   -1.4534    0.9381    0.9539 C   0  0  0  0  0  0  0  0  0  0  0  0
   -1.7384   -0.4299    1.3056 N   0  0  0  0  0  0  0  0  0  0  0  0
   -2.3980   -0.5590    2.5780 C   0  0  0  0  0  0  0  0  0  0  0  0
   -2.4302   -1.0403    0.2087 C   0  0  0  0  0  0  0  0  0  0  0  0
   -2.3834   -0.0543   -0.9355 C   0  0  2  0  0  0  0  0  0  0  0  0
   -2.3129   -0.6319   -2.1739 O   0  0  0  0  0  0  0  0  0  0  0  0
    3.8485    0.8763    1.2645 H   0  0  0  0  0  0  0  0  0  0  0  0
    2.8628   -0.6194    1.2649 H   0  0  0  0  0  0  0  0  0  0  0  0
    2.0404    1.0040    1.3759 H   0  0  0  0  0  0  0  0  0  0  0  0
    2.2624    1.4249   -0.8916 H   0  0  0  0  0  0  0  0  0  0  0  0
    4.8020    1.1063   -0.5127 H   0  0  0  0  0  0  0  0  0  0  0  0
    4.1320    1.0417   -2.1043 H   0  0  0  0  0  0  0  0  0  0  0  0
    2.0448   -0.5546   -2.2700 H   0  0  0  0  0  0  0  0  0  0  0  0
    2.5603   -1.5813   -0.9211 H   0  0  0  0  0  0  0  0  0  0  0  0
    0.7319   -0.8034    0.4799 H   0  0  0  0  0  0  0  0  0  0  0  0
    0.0882   -1.5011   -1.1178 H   0  0  0  0  0  0  0  0  0  0  0  0
    0.0958    0.7119   -2.0096 H   0  0  0  0  0  0  0  0  0  0  0  0
   -1.5578    1.8891   -0.9646 H   0  0  0  0  0  0  0  0  0  0  0  0
   -0.5297    1.3207    1.4269 H   0  0  0  0  0  0  0  0  0  0  0  0
   -2.3279    1.5968    1.1346 H   0  0  0  0  0  0  0  0  0  0  0  0
   -3.3915   -0.9970    2.4866 H   0  0  0  0  0  0  0  0  0  0  0  0
   -2.4900    0.4427    3.0912 H   0  0  0  0  0  0  0  0  0  0  0  0
   -1.7785   -1.2554    3.2000 H   0  0  0  0  0  0  0  0  0  0  0  0
   -2.0057   -2.0304   -0.0811 H   0  0  0  0  0  0  0  0  0  0  0  0
   -3.4721   -1.2408    0.5330 H   0  0  0  0  0  0  0  0  0  0  0  0
   -3.3472    0.5208   -0.8705 H   0  0  0  0  0  0  0  0  0  0  0  0
   -3.0575   -1.2910   -2.2643 H   0  0  0  0  0  0  0  0  0  0  0  0
  1  2  1  0
  2  3  1  0
  2  4  1  0
  4  5  1  0
  5  6  1  0
  6  7  1  0
  7  8  1  0
  8  9  1  0
  9 10  1  0
  9 11  1  0
 11 12  1  0
 12 13  1  0
 12  7  1  0
  1 14  1  0
  1 15  1  0
  1 16  1  0
  2 17  1  1
  3 18  1  0
  3 19  1  0
  4 20  1  0
  4 21  1  0
  5 22  1  0
  5 23  1  0
  6 24  1  0
  7 25  1  6
  8 26  1  0
  8 27  1  0
 10 28  1  0
 10 29  1  0
 10 30  1  0
 11 31  1  0
 11 32  1  0
 12 33  1  6
 13 34  1  0
M  END
$$$$

     RDKit          3D

 34 34  0  0  0  0  0  0  0  0999 V2000
    3.8477   -1.0628   -0.3200 C   0  0  0  0  0  0  0  0  0  0  0  0
    3.3832    0.2369    0.2248 C   0  0  1  0  0  0  0  0  0  0  0  0
    3.8081    1.3734   -0.5811 N   0  0  0  0  0  0  0  0  0  0  0  0
    1.8524    0.2326    0.3017 C   0  0  0  0  0  0  0  0  0  0  0  0
    1.1950    0.0416   -1.0287 C   0  0  0  0  0  0  0  0  0  0  0  0
   -0.1908    0.1125   -0.9281 N   0  0  0  0  0  0  0  0  0  0  0  0
   -0.9957   -0.8329   -0.3135 C   0  0  2  0  0  0  0  0  0  0  0  0
   -2.3510   -0.8204   -1.0938 C   0  0  0  0  0  0  0  0  0  0  0  0
   -2.8178    0.5121   -0.6995 N   0  0  0  0  0  0  0  0  0  0  0  0
   -4.2270    0.7032   -0.8482 C   0  0  0  0  0  0  0  0  0  0  0  0
   -2.4820    0.6717    0.6920 C   0  0  0  0  0  0  0  0  0  0  0  0
   -1.5727   -0.5036    1.0364 C   0  0  2  0  0  0  0  0  0  0  0  0
   -0.7107   -0.2115    2.0340 O   0  0  0  0  0  0  0  0  0  0  0  0
    4.0117   -0.9520   -1.4137 H   0  0  0  0  0  0  0  0  0  0  0  0
    4.7903   -1.3574    0.1977 H   0  0  0  0  0  0  0  0  0  0  0  0
    3.1443   -1.8957   -0.1201 H   0  0  0  0  0  0  0  0  0  0  0  0
    3.7245    0.3774    1.2740 H   0  0  0  0  0  0  0  0  0  0  0  0
    3.2699    2.1965   -0.1903 H   0  0  0  0  0  0  0  0  0  0  0  0
    4.8362    1.4826   -0.4268 H   0  0  0  0  0  0  0  0  0  0  0  0
    1.6528   -0.6948    0.9201 H   0  0  0  0  0  0  0  0  0  0  0  0
    1.5570    1.1626    0.7785 H   0  0  0  0  0  0  0  0  0  0  0  0
    1.5991   -0.9054   -1.4771 H   0  0  0  0  0  0  0  0  0  0  0  0
    1.5551    0.8340   -1.7447 H   0  0  0  0  0  0  0  0  0  0  0  0
   -0.6612    0.9164   -1.3916 H   0  0  0  0  0  0  0  0  0  0  0  0
   -0.6531   -1.8809   -0.3714 H   0  0  0  0  0  0  0  0  0  0  0  0
   -2.1841   -0.8894   -2.1708 H   0  0  0  0  0  0  0  0  0  0  0  0
   -3.0018   -1.5737   -0.6665 H   0  0  0  0  0  0  0  0  0  0  0  0
   -4.7161   -0.2843   -0.7507 H   0  0  0  0  0  0  0  0  0  0  0  0
   -4.5577    1.3919   -0.0224 H   0  0  0  0  0  0  0  0  0  0  0  0
   -4.5045    1.2248   -1.7786 H   0  0  0  0  0  0  0  0  0  0  0  0
   -3.3516    0.5721    1.3618 H   0  0  0  0  0  0  0  0  0  0  0  0
   -1.9672    1.6536    0.8441 H   0  0  0  0  0  0  0  0  0  0  0  0
   -2.2127   -1.3662    1.3310 H   0  0  0  0  0  0  0  0  0  0  0  0
   -1.0694   -0.4651    2.8973 H   0  0  0  0  0  0  0  0  0  0  0  0
  1  2  1  0
  2  3  1  0
  2  4  1  0
  4  5  1  0
  5  6  1  0
  6  7  1  0
  7  8  1  0
  8  9  1  0
  9 10  1  0
  9 11  1  0
 11 12  1  0
 12 13  1  0
 12  7  1  0
  1 14  1  0
  1 15  1  0
  1 16  1  0
  2 17  1  1
  3 18  1  0
  3 19  1  0
  4 20  1  0
  4 21  1  0
  5 22  1  0
  5 23  1  0
  6 24  1  0
  7 25  1  1
  8 26  1  0
  8 27  1  0
 10 28  1  0
 10 29  1  0
 10 30  1  0
 11 31  1  0
 11 32  1  0
 12 33  1  1
 13 34  1  0
M  END
$$$$

     RDKit          3D

 34 34  0  0  0  0  0  0  0  0999 V2000
   -3.0239   -1.1702   -0.6069 C   0  0  0  0  0  0  0  0  0  0  0  0
   -3.0120    0.3120   -0.4043 C   0  0  1  0  0  0  0  0  0  0  0  0
   -4.3040    0.9086   -0.4727 N   0  0  0  0  0  0  0  0  0  0  0  0
   -2.2622    0.6321    0.8590 C   0  0  0  0  0  0  0  0  0  0  0  0
   -0.8107    0.1288    0.7626 C   0  0  0  0  0  0  0  0  0  0  0  0
   -0.2299    0.7928   -0.3402 N   0  0  0  0  0  0  0  0  0  0  0  0
    1.0985    0.5359   -0.6969 C   0  0  2  0  0  0  0  0  0  0  0  0
    1.4092   -0.8784   -1.0972 C   0  0  0  0  0  0  0  0  0  0  0  0
    2.5340   -1.2655   -0.2524 N   0  0  0  0  0  0  0  0  0  0  0  0
    3.7947   -1.0595   -0.9417 C   0  0  0  0  0  0  0  0  0  0  0  0
    2.4596   -0.4435    0.9447 C   0  0  0  0  0  0  0  0  0  0  0  0
    2.0686    0.9151    0.3745 C   0  0  2  0  0  0  0  0  0  0  0  0
    1.5325    1.6924    1.3670 O   0  0  0  0  0  0  0  0  0  0  0  0
   -2.0191   -1.4858   -0.9545 H   0  0  0  0  0  0  0  0  0  0  0  0
   -3.7388   -1.4395   -1.4177 H   0  0  0  0  0  0  0  0  0  0  0  0
   -3.2394   -1.7209    0.3389 H   0  0  0  0  0  0  0  0  0  0  0  0
   -2.4071    0.7456   -1.2503 H   0  0  0  0  0  0  0  0  0  0  0  0
   -4.2213    1.9039   -0.7082 H   0  0  0  0  0  0  0  0  0  0  0  0
   -4.9257    0.7125    0.3273 H   0  0  0  0  0  0  0  0  0  0  0  0
   -2.2777    1.7314    1.0049 H   0  0  0  0  0  0  0  0  0  0  0  0
   -2.7938    0.1911    1.7249 H   0  0  0  0  0  0  0  0  0  0  0  0
   -0.3294    0.4207    1.7097 H   0  0  0  0  0  0  0  0  0  0  0  0
   -0.8995   -0.9749    0.6583 H   0  0  0  0  0  0  0  0  0  0  0  0
   -0.6777    1.6578   -0.6521 H   0  0  0  0  0  0  0  0  0  0  0  0
    1.3335    1.1742   -1.6060 H   0  0  0  0  0  0  0  0  0  0  0  0
    0.5934   -1.5876   -0.8540 H   0  0  0  0  0  0  0  0  0  0  0  0
    1.7489   -0.9583   -2.1511 H   0  0  0  0  0  0  0  0  0  0  0  0
    4.5877   -1.5085   -0.3121 H   0  0  0  0  0  0  0  0  0  0  0  0
    3.7442   -1.6894   -1.8716 H   0  0  0  0  0  0  0  0  0  0  0  0
    3.9927   -0.0123   -1.2082 H   0  0  0  0  0  0  0  0  0  0  0  0
    1.6829   -0.8690    1.5822 H   0  0  0  0  0  0  0  0  0  0  0  0
    3.4496   -0.4162    1.4016 H   0  0  0  0  0  0  0  0  0  0  0  0
    3.0091    1.3510   -0.0549 H   0  0  0  0  0  0  0  0  0  0  0  0
    2.1330    1.6735    2.1568 H   0  0  0  0  0  0  0  0  0  0  0  0
  1  2  1  0
  2  3  1  0
  2  4  1  0
  4  5  1  0
  5  6  1  0
  6  7  1  0
  7  8  1  0
  8  9  1  0
  9 10  1  0
  9 11  1  0
 11 12  1  0
 12 13  1  0
 12  7  1  0
  1 14  1  0
  1 15  1  0
  1 16  1  0
  2 17  1  6
  3 18  1  0
  3 19  1  0
  4 20  1  0
  4 21  1  0
  5 22  1  0
  5 23  1  0
  6 24  1  0
  7 25  1  6
  8 26  1  0
  8 27  1  0
 10 28  1  0
 10 29  1  0
 10 30  1  0
 11 31  1  0
 11 32  1  0
 12 33  1  6
 13 34  1  0
M  END
$$$$

     RDKit          3D

 34 34  0  0  0  0  0  0  0  0999 V2000
   -3.7617    0.2518    0.6329 C   0  0  0  0  0  0  0  0  0  0  0  0
   -3.4482   -0.5812   -0.5707 C   0  0  1  0  0  0  0  0  0  0  0  0
   -3.5817    0.1390   -1.7983 N   0  0  0  0  0  0  0  0  0  0  0  0
   -2.1476   -1.2904   -0.4100 C   0  0  0  0  0  0  0  0  0  0  0  0
   -0.9839   -0.3014   -0.2116 C   0  0  0  0  0  0  0  0  0  0  0  0
    0.1793   -1.0522   -0.0775 N   0  0  0  0  0  0  0  0  0  0  0  0
    1.4315   -0.5293    0.1725 C   0  0  2  0  0  0  0  0  0  0  0  0
    1.5989    0.2415    1.4611 C   0  0  0  0  0  0  0  0  0  0  0  0
    2.8285    0.9737    1.1740 N   0  0  0  0  0  0  0  0  0  0  0  0
    3.9706    0.1114    1.1243 C   0  0  0  0  0  0  0  0  0  0  0  0
    2.5381    1.5524   -0.1097 C   0  0  0  0  0  0  0  0  0  0  0  0
    1.9828    0.3601   -0.8875 C   0  0  2  0  0  0  0  0  0  0  0  0
    1.0490    0.8469   -1.7765 O   0  0  0  0  0  0  0  0  0  0  0  0
   -3.5513   -0.3899    1.5317 H   0  0  0  0  0  0  0  0  0  0  0  0
   -3.1319    1.1508    0.6343 H   0  0  0  0  0  0  0  0  0  0  0  0
   -4.8467    0.5020    0.6319 H   0  0  0  0  0  0  0  0  0  0  0  0
   -4.2400   -1.3872   -0.6032 H   0  0  0  0  0  0  0  0  0  0  0  0
   -2.9209   -0.2065   -2.5157 H   0  0  0  0  0  0  0  0  0  0  0  0
   -3.6980    1.1514   -1.7238 H   0  0  0  0  0  0  0  0  0  0  0  0
   -2.1699   -1.9097    0.4938 H   0  0  0  0  0  0  0  0  0  0  0  0
   -1.9441   -1.9113   -1.2826 H   0  0  0  0  0  0  0  0  0  0  0  0
   -1.2586    0.3502    0.6399 H   0  0  0  0  0  0  0  0  0  0  0  0
   -0.9904    0.3036   -1.1302 H   0  0  0  0  0  0  0  0  0  0  0  0
    0.1109   -2.0714   -0.2298 H   0  0  0  0  0  0  0  0  0  0  0  0
    2.1679   -1.3918    0.2767 H   0  0  0  0  0  0  0  0  0  0  0  0
    0.8207    0.9934    1.6256 H   0  0  0  0  0  0  0  0  0  0  0  0
    1.8198   -0.4150    2.3232 H   0  0  0  0  0  0  0  0  0  0  0  0
    3.9520   -0.5691    2.0081 H   0  0  0  0  0  0  0  0  0  0  0  0
    4.0881   -0.4355    0.1677 H   0  0  0  0  0  0  0  0  0  0  0  0
    4.8741    0.7593    1.2231 H   0  0  0  0  0  0  0  0  0  0  0  0
    1.7154    2.2711    0.0049 H   0  0  0  0  0  0  0  0  0  0  0  0
    3.4402    1.9503   -0.6163 H   0  0  0  0  0  0  0  0  0  0  0  0
    2.8321   -0.1389   -1.4499 H   0  0  0  0  0  0  0  0  0  0  0  0
    1.2749    0.6719   -2.7032 H   0  0  0  0  0  0  0  0  0  0  0  0
  1  2  1  0
  2  3  1  0
  2  4  1  0
  4  5  1  0
  5  6  1  0
  6  7  1  0
  7  8  1  0
  8  9  1  0
  9 10  1  0
  9 11  1  0
 11 12  1  0
 12 13  1  0
 12  7  1  0
  1 14  1  0
  1 15  1  0
  1 16  1  0
  2 17  1  6
  3 18  1  0
  3 19  1  0
  4 20  1  0
  4 21  1  0
  5 22  1  0
  5 23  1  0
  6 24  1  0
  7 25  1  1
  8 26  1  0
  8 27  1  0
 10 28  1  0
 10 29  1  0
 10 30  1  0
 11 31  1  0
 11 32  1  0
 12 33  1  6
 13 34  1  0
M  END
$$$$

     RDKit          3D

 34 34  0  0  0  0  0  0  0  0999 V2000
    4.1331   -1.1270   -0.6558 C   0  0  0  0  0  0  0  0  0  0  0  0
    3.5142   -0.2493    0.4305 C   0  0  1  0  0  0  0  0  0  0  0  0
    3.7932    1.1501    0.2299 N   0  0  0  0  0  0  0  0  0  0  0  0
    2.0369   -0.5345    0.5318 C   0  0  0  0  0  0  0  0  0  0  0  0
    1.2830   -0.2568   -0.7252 C   0  0  0  0  0  0  0  0  0  0  0  0
   -0.0972   -0.5913   -0.7141 N   0  0  0  0  0  0  0  0  0  0  0  0
   -0.9353    0.1681    0.1280 C   0  0  2  0  0  0  0  0  0  0  0  0
   -2.0872   -0.6999    0.6887 C   0  0  0  0  0  0  0  0  0  0  0  0
   -3.1037    0.2237    1.0831 N   0  0  0  0  0  0  0  0  0  0  0  0
   -4.4252   -0.1705    0.6341 C   0  0  0  0  0  0  0  0  0  0  0  0
   -2.7991    1.4981    0.5007 C   0  0  0  0  0  0  0  0  0  0  0  0
   -1.7805    1.2056   -0.5912 C   0  0  2  0  0  0  0  0  0  0  0  0
   -2.4529    0.5679   -1.6343 O   0  0  0  0  0  0  0  0  0  0  0  0
    4.1743   -0.6442   -1.6237 H   0  0  0  0  0  0  0  0  0  0  0  0
    3.4662   -2.0288   -0.7307 H   0  0  0  0  0  0  0  0  0  0  0  0
    5.1312   -1.4782   -0.3421 H   0  0  0  0  0  0  0  0  0  0  0  0
    4.0080   -0.5639    1.3736 H   0  0  0  0  0  0  0  0  0  0  0  0
    4.7800    1.3031   -0.1222 H   0  0  0  0  0  0  0  0  0  0  0  0
    3.0974    1.5449   -0.4034 H   0  0  0  0  0  0  0  0  0  0  0  0
    1.6658    0.1509    1.3534 H   0  0  0  0  0  0  0  0  0  0  0  0
    1.8511   -1.5455    0.9297 H   0  0  0  0  0  0  0  0  0  0  0  0
    1.8178   -0.6834   -1.6087 H   0  0  0  0  0  0  0  0  0  0  0  0
    1.3165    0.8666   -0.8882 H   0  0  0  0  0  0  0  0  0  0  0  0
   -0.3031   -1.6129   -0.7257 H   0  0  0  0  0  0  0  0  0  0  0  0
   -0.4688    0.6308    1.0102 H   0  0  0  0  0  0  0  0  0  0  0  0
   -1.7201   -1.3791    1.4560 H   0  0  0  0  0  0  0  0  0  0  0  0
   -2.4969   -1.2709   -0.1927 H   0  0  0  0  0  0  0  0  0  0  0  0
   -5.0252   -0.6501    1.4367 H   0  0  0  0  0  0  0  0  0  0  0  0
   -4.3703   -0.7733   -0.2743 H   0  0  0  0  0  0  0  0  0  0  0  0
   -5.0138    0.7533    0.3563 H   0  0  0  0  0  0  0  0  0  0  0  0
   -3.6824    2.0391    0.1284 H   0  0  0  0  0  0  0  0  0  0  0  0
   -2.2522    2.1136    1.2690 H   0  0  0  0  0  0  0  0  0  0  0  0
   -1.2131    2.0921   -0.8995 H   0  0  0  0  0  0  0  0  0  0  0  0
   -1.8416   -0.0485   -2.1349 H   0  0  0  0  0  0  0  0  0  0  0  0
  1  2  1  0
  2  3  1  0
  2  4  1  0
  4  5  1  0
  5  6  1  0
  6  7  1  0
  7  8  1  0
  8  9  1  0
  9 10  1  0
  9 11  1  0
 11 12  1  0
 12 13  1  0
 12  7  1  0
  1 14  1  0
  1 15  1  0
  1 16  1  0
  2 17  1  1
  3 18  1  0
  3 19  1  0
  4 20  1  0
  4 21  1  0
  5 22  1  0
  5 23  1  0
  6 24  1  0
  7 25  1  1
  8 26  1  0
  8 27  1  0
 10 28  1  0
 10 29  1  0
 10 30  1  0
 11 31  1  0
 11 32  1  0
 12 33  1  6
 13 34  1  0
M  END
$$$$

     RDKit          3D

 34 34  0  0  0  0  0  0  0  0999 V2000
    4.2988    0.0413    0.1747 C   0  0  0  0  0  0  0  0  0  0  0  0
    3.0933    0.9361   -0.0809 C   0  0  1  0  0  0  0  0  0  0  0  0
    2.8566    0.9381   -1.5346 N   0  0  0  0  0  0  0  0  0  0  0  0
    1.8897    0.2989    0.5555 C   0  0  0  0  0  0  0  0  0  0  0  0
    0.6802    1.1783    0.3125 C   0  0  0  0  0  0  0  0  0  0  0  0
   -0.5135    0.6078    0.8879 N   0  0  0  0  0  0  0  0  0  0  0  0
   -0.9488   -0.5305    0.1662 C   0  0  2  0  0  0  0  0  0  0  0  0
   -1.4445   -0.1891   -1.2300 C   0  0  0  0  0  0  0  0  0  0  0  0
   -2.8985   -0.3353   -1.0831 N   0  0  0  0  0  0  0  0  0  0  0  0
   -3.4748    0.8194   -0.4133 C   0  0  0  0  0  0  0  0  0  0  0  0
   -3.0303   -1.5285   -0.2553 C   0  0  0  0  0  0  0  0  0  0  0  0
   -1.9631   -1.4058    0.8177 C   0  0  2  0  0  0  0  0  0  0  0  0
   -2.4857   -0.9325    2.0040 O   0  0  0  0  0  0  0  0  0  0  0  0
    3.9482   -1.0187    0.0136 H   0  0  0  0  0  0  0  0  0  0  0  0
    4.5672    0.1944    1.2480 H   0  0  0  0  0  0  0  0  0  0  0  0
    5.1020    0.3289   -0.4970 H   0  0  0  0  0  0  0  0  0  0  0  0
    3.2790    1.9480    0.3059 H   0  0  0  0  0  0  0  0  0  0  0  0
    3.7393    1.1972   -2.0394 H   0  0  0  0  0  0  0  0  0  0  0  0
    2.6057   -0.0495   -1.8054 H   0  0  0  0  0  0  0  0  0  0  0  0
    1.8202   -0.7182    0.1980 H   0  0  0  0  0  0  0  0  0  0  0  0
    2.0523    0.2543    1.6590 H   0  0  0  0  0  0  0  0  0  0  0  0
    0.9048    2.1605    0.8269 H   0  0  0  0  0  0  0  0  0  0  0  0
    0.5678    1.3908   -0.7529 H   0  0  0  0  0  0  0  0  0  0  0  0
   -0.4034    0.4961    1.8988 H   0  0  0  0  0  0  0  0  0  0  0  0
   -0.0438   -1.1986   -0.0128 H   0  0  0  0  0  0  0  0  0  0  0  0
   -1.1045   -0.8765   -2.0003 H   0  0  0  0  0  0  0  0  0  0  0  0
   -1.1716    0.8398   -1.4692 H   0  0  0  0  0  0  0  0  0  0  0  0
   -4.4957    0.9837   -0.8634 H   0  0  0  0  0  0  0  0  0  0  0  0
   -3.6584    0.5372    0.6491 H   0  0  0  0  0  0  0  0  0  0  0  0
   -2.8712    1.7357   -0.5372 H   0  0  0  0  0  0  0  0  0  0  0  0
   -2.8137   -2.4034   -0.9189 H   0  0  0  0  0  0  0  0  0  0  0  0
   -4.0524   -1.5693    0.1573 H   0  0  0  0  0  0  0  0  0  0  0  0
   -1.5791   -2.4543    0.9544 H   0  0  0  0  0  0  0  0  0  0  0  0
   -2.4520   -1.6765    2.6641 H   0  0  0  0  0  0  0  0  0  0  0  0
  1  2  1  0
  2  3  1  0
  2  4  1  0
  4  5  1  0
  5  6  1  0
  6  7  1  0
  7  8  1  0
  8  9  1  0
  9 10  1  0
  9 11  1  0
 11 12  1  0
 12 13  1  0
 12  7  1  0
  1 14  1  0
  1 15  1  0
  1 16  1  0
  2 17  1  1
  3 18  1  0
  3 19  1  0
  4 20  1  0
  4 21  1  0
  5 22  1  0
  5 23  1  0
  6 24  1  0
  7 25  1  6
  8 26  1  0
  8 27  1  0
 10 28  1  0
 10 29  1  0
 10 30  1  0
 11 31  1  0
 11 32  1  0
 12 33  1  1
 13 34  1  0
M  END
$$$$

     RDKit          3D

 34 34  0  0  0  0  0  0  0  0999 V2000
    4.0314   -0.7850    0.9043 C   0  0  0  0  0  0  0  0  0  0  0  0
    3.2218    0.4322    0.4852 C   0  0  1  0  0  0  0  0  0  0  0  0
    4.0168    1.2705   -0.3487 N   0  0  0  0  0  0  0  0  0  0  0  0
    1.9645   -0.1075   -0.1783 C   0  0  0  0  0  0  0  0  0  0  0  0
    1.0521    0.9860   -0.6575 C   0  0  0  0  0  0  0  0  0  0  0  0
   -0.1174    0.5591   -1.2515 N   0  0  0  0  0  0  0  0  0  0  0  0
   -1.2327    0.0396   -0.6929 C   0  0  2  0  0  0  0  0  0  0  0  0
   -2.1051    0.8969    0.2101 C   0  0  0  0  0  0  0  0  0  0  0  0
   -3.1792   -0.0211    0.5775 N   0  0  0  0  0  0  0  0  0  0  0  0
   -4.4155    0.2501   -0.1151 C   0  0  0  0  0  0  0  0  0  0  0  0
   -2.7146   -1.3739    0.3240 C   0  0  0  0  0  0  0  0  0  0  0  0
   -1.1719   -1.1926    0.1939 C   0  0  2  0  0  0  0  0  0  0  0  0
   -0.8008   -0.9007    1.5068 O   0  0  0  0  0  0  0  0  0  0  0  0
    4.2159   -1.3829    0.0055 H   0  0  0  0  0  0  0  0  0  0  0  0
    4.9284   -0.4604    1.4436 H   0  0  0  0  0  0  0  0  0  0  0  0
    3.3935   -1.4319    1.5796 H   0  0  0  0  0  0  0  0  0  0  0  0
    2.9419    1.0285    1.3962 H   0  0  0  0  0  0  0  0  0  0  0  0
    3.9675    1.0477   -1.3717 H   0  0  0  0  0  0  0  0  0  0  0  0
    3.8901    2.2963   -0.1538 H   0  0  0  0  0  0  0  0  0  0  0  0
    1.5559   -0.8597    0.4714 H   0  0  0  0  0  0  0  0  0  0  0  0
    2.3041   -0.6555   -1.1088 H   0  0  0  0  0  0  0  0  0  0  0  0
    0.9555    1.7564    0.1442 H   0  0  0  0  0  0  0  0  0  0  0  0
    1.6666    1.5355   -1.4445 H   0  0  0  0  0  0  0  0  0  0  0  0
   -0.0028    0.2660   -2.2618 H   0  0  0  0  0  0  0  0  0  0  0  0
   -1.9418   -0.2794   -1.5286 H   0  0  0  0  0  0  0  0  0  0  0  0
   -1.6167    1.2216    1.1214 H   0  0  0  0  0  0  0  0  0  0  0  0
   -2.5197    1.7568   -0.3235 H   0  0  0  0  0  0  0  0  0  0  0  0
   -4.8249   -0.6241   -0.6460 H   0  0  0  0  0  0  0  0  0  0  0  0
   -4.1909    1.0900   -0.8315 H   0  0  0  0  0  0  0  0  0  0  0  0
   -5.1298    0.6627    0.6267 H   0  0  0  0  0  0  0  0  0  0  0  0
   -3.0793   -1.7070   -0.6650 H   0  0  0  0  0  0  0  0  0  0  0  0
   -2.9414   -2.0784    1.1284 H   0  0  0  0  0  0  0  0  0  0  0  0
   -0.6987   -2.0491   -0.2500 H   0  0  0  0  0  0  0  0  0  0  0  0
   -1.4229   -1.1868    2.1901 H   0  0  0  0  0  0  0  0  0  0  0  0
  1  2  1  0
  2  3  1  0
  2  4  1  0
  4  5  1  0
  5  6  1  0
  6  7  1  0
  7  8  1  0
  8  9  1  0
  9 10  1  0
  9 11  1  0
 11 12  1  0
 12 13  1  0
 12  7  1  0
  1 14  1  0
  1 15  1  0
  1 16  1  0
  2 17  1  1
  3 18  1  0
  3 19  1  0
  4 20  1  0
  4 21  1  0
  5 22  1  0
  5 23  1  0
  6 24  1  0
  7 25  1  6
  8 26  1  0
  8 27  1  0
 10 28  1  0
 10 29  1  0
 10 30  1  0
 11 31  1  0
 11 32  1  0
 12 33  1  6
 13 34  1  0
M  END
$$$$

     RDKit          3D

 34 34  0  0  0  0  0  0  0  0999 V2000
   -3.9302    0.9068   -0.5938 C   0  0  0  0  0  0  0  0  0  0  0  0
   -2.8455    0.2734    0.2192 C   0  0  1  0  0  0  0  0  0  0  0  0
   -3.3851   -0.2103    1.4463 N   0  0  0  0  0  0  0  0  0  0  0  0
   -2.0794   -0.7607   -0.5605 C   0  0  0  0  0  0  0  0  0  0  0  0
   -0.9922   -1.4123    0.2264 C   0  0  0  0  0  0  0  0  0  0  0  0
   -0.0454   -0.4900    0.6768 N   0  0  0  0  0  0  0  0  0  0  0  0
    0.8207    0.1846   -0.1608 C   0  0  2  0  0  0  0  0  0  0  0  0
    1.8141   -0.5653   -0.9565 C   0  0  0  0  0  0  0  0  0  0  0  0
    3.0496    0.1937   -1.0086 N   0  0  0  0  0  0  0  0  0  0  0  0
    4.1834   -0.5762   -0.4846 C   0  0  0  0  0  0  0  0  0  0  0  0
    2.8594    1.3675   -0.2173 C   0  0  0  0  0  0  0  0  0  0  0  0
    1.6570    1.1602    0.6412 C   0  0  2  0  0  0  0  0  0  0  0  0
    1.9440    0.5613    1.8569 O   0  0  0  0  0  0  0  0  0  0  0  0
   -3.9218    2.0246   -0.5658 H   0  0  0  0  0  0  0  0  0  0  0  0
   -3.8362    0.6314   -1.6709 H   0  0  0  0  0  0  0  0  0  0  0  0
   -4.9508    0.5989   -0.2569 H   0  0  0  0  0  0  0  0  0  0  0  0
   -2.1148    1.0981    0.4684 H   0  0  0  0  0  0  0  0  0  0  0  0
   -4.2148    0.3748    1.6928 H   0  0  0  0  0  0  0  0  0  0  0  0
   -3.7330   -1.2021    1.3939 H   0  0  0  0  0  0  0  0  0  0  0  0
   -1.6618   -0.3309   -1.4896 H   0  0  0  0  0  0  0  0  0  0  0  0
   -2.8470   -1.5272   -0.8814 H   0  0  0  0  0  0  0  0  0  0  0  0
   -1.4495   -1.9088    1.1347 H   0  0  0  0  0  0  0  0  0  0  0  0
   -0.6127   -2.2582   -0.3760 H   0  0  0  0  0  0  0  0  0  0  0  0
   -0.4194    0.0856    1.4526 H   0  0  0  0  0  0  0  0  0  0  0  0
    0.2230    0.8251   -0.8712 H   0  0  0  0  0  0  0  0  0  0  0  0
    1.4566   -0.6697   -2.0026 H   0  0  0  0  0  0  0  0  0  0  0  0
    2.0820   -1.5630   -0.5701 H   0  0  0  0  0  0  0  0  0  0  0  0
    3.8028   -1.4154    0.1420 H   0  0  0  0  0  0  0  0  0  0  0  0
    4.7570   -1.0189   -1.3192 H   0  0  0  0  0  0  0  0  0  0  0  0
    4.8191    0.1032    0.1364 H   0  0  0  0  0  0  0  0  0  0  0  0
    2.6563    2.2126   -0.9030 H   0  0  0  0  0  0  0  0  0  0  0  0
    3.7255    1.6022    0.4422 H   0  0  0  0  0  0  0  0  0  0  0  0
    1.0709    2.1032    0.7789 H   0  0  0  0  0  0  0  0  0  0  0  0
    2.1179   -0.3983    1.7230 H   0  0  0  0  0  0  0  0  0  0  0  0
  1  2  1  0
  2  3  1  0
  2  4  1  0
  4  5  1  0
  5  6  1  0
  6  7  1  0
  7  8  1  0
  8  9  1  0
  9 10  1  0
  9 11  1  0
 11 12  1  0
 12 13  1  0
 12  7  1  0
  1 14  1  0
  1 15  1  0
  1 16  1  0
  2 17  1  1
  3 18  1  0
  3 19  1  0
  4 20  1  0
  4 21  1  0
  5 22  1  0
  5 23  1  0
  6 24  1  0
  7 25  1  6
  8 26  1  0
  8 27  1  0
 10 28  1  0
 10 29  1  0
 10 30  1  0
 11 31  1  0
 11 32  1  0
 12 33  1  1
 13 34  1  0
M  END
$$$$
