
     RDKit          3D

 31 32  0  0  0  0  0  0  0  0999 V2000
   -3.9058    0.5787   -0.4565 C   0  0  0  0  0  0  0  0  0  0  0  0
   -2.8171    0.1120    0.4561 C   0  0  1  0  0  0  0  0  0  0  0  0
   -2.9614   -1.2453    0.9932 N   0  0  0  0  0  0  0  0  0  0  0  0
   -1.4783   -1.1856    1.0602 C   0  0  0  0  0  0  0  0  0  0  0  0
   -1.5987   -0.4857   -0.2710 C   0  0  2  0  0  0  0  0  0  0  0  0
   -0.6197    0.4351   -0.6711 N   0  0  0  0  0  0  0  0  0  0  0  0
    0.1029    1.2119    0.2781 C   0  0  0  0  0  0  0  0  0  0  0  0
    1.4360    0.8466   -0.3457 C   0  0  0  0  0  0  0  0  0  0  0  0
    2.4398    0.2282    0.5936 C   0  0  1  0  0  0  0  0  0  0  0  0
    1.9104   -0.9490    1.1175 O   0  0  0  0  0  0  0  0  0  0  0  0
    3.6728   -0.1563   -0.2196 C   0  0  0  0  0  0  0  0  0  0  0  0
    4.2447    0.9852   -0.7746 O   0  0  0  0  0  0  0  0  0  0  0  0
    0.6119   -0.1875   -1.0918 C   0  0  0  0  0  0  0  0  0  0  0  0
   -3.8597    0.1254   -1.4653 H   0  0  0  0  0  0  0  0  0  0  0  0
   -3.7371    1.6839   -0.5865 H   0  0  0  0  0  0  0  0  0  0  0  0
   -4.9196    0.5031   -0.0122 H   0  0  0  0  0  0  0  0  0  0  0  0
   -2.4821    0.7752    1.2492 H   0  0  0  0  0  0  0  0  0  0  0  0
   -3.1833   -1.8852    0.1904 H   0  0  0  0  0  0  0  0  0  0  0  0
   -1.2021   -0.5093    1.8814 H   0  0  0  0  0  0  0  0  0  0  0  0
   -1.0056   -2.1792    1.0663 H   0  0  0  0  0  0  0  0  0  0  0  0
   -1.8966   -1.2595   -1.0297 H   0  0  0  0  0  0  0  0  0  0  0  0
   -0.0956    2.3094    0.1465 H   0  0  0  0  0  0  0  0  0  0  0  0
    0.0294    0.9110    1.3224 H   0  0  0  0  0  0  0  0  0  0  0  0
    1.8309    1.6579   -1.0003 H   0  0  0  0  0  0  0  0  0  0  0  0
    2.7497    0.8768    1.4126 H   0  0  0  0  0  0  0  0  0  0  0  0
    2.5524   -1.7009    1.0303 H   0  0  0  0  0  0  0  0  0  0  0  0
    4.3915   -0.7076    0.3904 H   0  0  0  0  0  0  0  0  0  0  0  0
    3.3417   -0.8667   -1.0262 H   0  0  0  0  0  0  0  0  0  0  0  0
    4.8631    1.4269   -0.1414 H   0  0  0  0  0  0  0  0  0  0  0  0
    0.7847   -1.1946   -0.6684 H   0  0  0  0  0  0  0  0  0  0  0  0
    0.8007   -0.1549   -2.1852 H   0  0  0  0  0  0  0  0  0  0  0  0
  1  2  1  0
  2  3  1  0
  3  4  1  0
  4  5  1  0
  5  6  1  0
  6  7  1  0
  7  8  1  0
  8  9  1  0
  9 10  1  0
  9 11  1  0
 11 12  1  0
  8 13  1  0
  5  2  1  0
 13  6  1  0
  1 14  1  0
  1 15  1  0
  1 16  1  0
  2 17  1  1
  3 18  1  0
  4 19  1  0
  4 20  1  0
  5 21  1  6
  7 22  1  0
  7 23  1  0
  8 24  1  0
  9 25  1  1
 10 26  1  0
 11 27  1  0
 11 28  1  0
 12 29  1  0
 13 30  1  0
 13 31  1  0
M  END
$$$$

     RDKit          3D

 31 32  0  0  0  0  0  0  0  0999 V2000
   -3.2304    1.4993   -0.0192 C   0  0  0  0  0  0  0  0  0  0  0  0
   -2.7300    0.2084    0.5789 C   0  0  1  0  0  0  0  0  0  0  0  0
   -3.6412   -0.8719    0.2521 N   0  0  0  0  0  0  0  0  0  0  0  0
   -2.4799   -1.6667   -0.1065 C   0  0  0  0  0  0  0  0  0  0  0  0
   -1.5896   -0.4433   -0.1346 C   0  0  2  0  0  0  0  0  0  0  0  0
   -0.4714   -0.6357    0.7521 N   0  0  0  0  0  0  0  0  0  0  0  0
    0.6950   -1.2725    0.1224 C   0  0  0  0  0  0  0  0  0  0  0  0
    1.5111   -0.4504    1.1299 C   0  0  0  0  0  0  0  0  0  0  0  0
    2.8772   -0.0733    0.6645 C   0  0  1  0  0  0  0  0  0  0  0  0
    3.6634   -1.2102    0.3756 O   0  0  0  0  0  0  0  0  0  0  0  0
    2.9174    0.9168   -0.4509 C   0  0  0  0  0  0  0  0  0  0  0  0
    4.2752    1.2867   -0.6091 O   0  0  0  0  0  0  0  0  0  0  0  0
    0.4001    0.5461    0.8748 C   0  0  0  0  0  0  0  0  0  0  0  0
   -3.4308    1.3548   -1.1051 H   0  0  0  0  0  0  0  0  0  0  0  0
   -4.2146    1.7134    0.4651 H   0  0  0  0  0  0  0  0  0  0  0  0
   -2.5829    2.3597    0.1817 H   0  0  0  0  0  0  0  0  0  0  0  0
   -2.5700    0.3518    1.6710 H   0  0  0  0  0  0  0  0  0  0  0  0
   -4.2471   -0.6924   -0.5772 H   0  0  0  0  0  0  0  0  0  0  0  0
   -2.5816   -2.2104   -1.0552 H   0  0  0  0  0  0  0  0  0  0  0  0
   -2.2630   -2.3759    0.7357 H   0  0  0  0  0  0  0  0  0  0  0  0
   -1.3584   -0.0821   -1.1410 H   0  0  0  0  0  0  0  0  0  0  0  0
    0.8637   -0.9737   -0.9263 H   0  0  0  0  0  0  0  0  0  0  0  0
    0.7548   -2.3628    0.2855 H   0  0  0  0  0  0  0  0  0  0  0  0
    1.4291   -0.9030    2.1208 H   0  0  0  0  0  0  0  0  0  0  0  0
    3.3914    0.4011    1.5434 H   0  0  0  0  0  0  0  0  0  0  0  0
    4.6303   -0.9595    0.4504 H   0  0  0  0  0  0  0  0  0  0  0  0
    2.4025    1.8403   -0.0905 H   0  0  0  0  0  0  0  0  0  0  0  0
    2.5683    0.5567   -1.4157 H   0  0  0  0  0  0  0  0  0  0  0  0
    4.3365    1.8612   -1.4153 H   0  0  0  0  0  0  0  0  0  0  0  0
    0.1568    1.1953    1.7155 H   0  0  0  0  0  0  0  0  0  0  0  0
    0.5181    1.0921   -0.0855 H   0  0  0  0  0  0  0  0  0  0  0  0
  1  2  1  0
  2  3  1  0
  3  4  1  0
  4  5  1  0
  5  6  1  0
  6  7  1  0
  7  8  1  0
  8  9  1  0
  9 10  1  0
  9 11  1  0
 11 12  1  0
  8 13  1  0
  5  2  1  0
 13  6  1  0
  1 14  1  0
  1 15  1  0
  1 16  1  0
  2 17  1  1
  3 18  1  0
  4 19  1  0
  4 20  1  0
  5 21  1  6
  7 22  1  0
  7 23  1  0
  8 24  1  0
  9 25  1  1
 10 26  1  0
 11 27  1  0
 11 28  1  0
 12 29  1  0
 13 30  1  0
 13 31  1  0
M  END
$$$$

     RDKit          3D

 31 32  0  0  0  0  0  0  0  0999 V2000
   -3.9196   -0.9310   -0.6957 C   0  0  0  0  0  0  0  0  0  0  0  0
   -2.7428   -0.0438   -1.0438 C   0  0  1  0  0  0  0  0  0  0  0  0
   -2.9271    1.2799   -0.4990 N   0  0  0  0  0  0  0  0  0  0  0  0
   -2.3534    0.7824    0.7564 C   0  0  0  0  0  0  0  0  0  0  0  0
   -1.5824   -0.2256   -0.0712 C   0  0  2  0  0  0  0  0  0  0  0  0
   -0.3620    0.3579   -0.5529 N   0  0  0  0  0  0  0  0  0  0  0  0
    0.5597    0.7524    0.4755 C   0  0  0  0  0  0  0  0  0  0  0  0
    1.3106   -0.5205    0.2523 C   0  0  0  0  0  0  0  0  0  0  0  0
    2.7880   -0.3591    0.2491 C   0  0  1  0  0  0  0  0  0  0  0  0
    3.4368   -1.5841    0.0419 O   0  0  0  0  0  0  0  0  0  0  0  0
    3.3123    0.5967   -0.7881 C   0  0  0  0  0  0  0  0  0  0  0  0
    4.7036    0.6898   -0.5741 O   0  0  0  0  0  0  0  0  0  0  0  0
    0.6294   -0.5199   -1.0915 C   0  0  0  0  0  0  0  0  0  0  0  0
   -3.5919   -1.8955   -0.2719 H   0  0  0  0  0  0  0  0  0  0  0  0
   -4.4825   -1.1350   -1.6370 H   0  0  0  0  0  0  0  0  0  0  0  0
   -4.5632   -0.4500    0.0614 H   0  0  0  0  0  0  0  0  0  0  0  0
   -2.3929   -0.0920   -2.0826 H   0  0  0  0  0  0  0  0  0  0  0  0
   -2.3069    1.9478   -0.9801 H   0  0  0  0  0  0  0  0  0  0  0  0
   -3.0977    0.3481    1.4488 H   0  0  0  0  0  0  0  0  0  0  0  0
   -1.7276    1.5490    1.2644 H   0  0  0  0  0  0  0  0  0  0  0  0
   -1.5133   -1.2245    0.3740 H   0  0  0  0  0  0  0  0  0  0  0  0
    1.1086    1.6547    0.1755 H   0  0  0  0  0  0  0  0  0  0  0  0
    0.1438    0.7704    1.5080 H   0  0  0  0  0  0  0  0  0  0  0  0
    0.9896   -1.3911    0.8350 H   0  0  0  0  0  0  0  0  0  0  0  0
    3.1130    0.0102    1.2409 H   0  0  0  0  0  0  0  0  0  0  0  0
    2.8918   -2.2155   -0.4908 H   0  0  0  0  0  0  0  0  0  0  0  0
    3.2159    0.0893   -1.7768 H   0  0  0  0  0  0  0  0  0  0  0  0
    2.9132    1.6083   -0.7407 H   0  0  0  0  0  0  0  0  0  0  0  0
    4.9484    1.6032   -0.2429 H   0  0  0  0  0  0  0  0  0  0  0  0
    1.1871    0.0340   -1.9030 H   0  0  0  0  0  0  0  0  0  0  0  0
    0.3115   -1.4865   -1.4877 H   0  0  0  0  0  0  0  0  0  0  0  0
  1  2  1  0
  2  3  1  0
  3  4  1  0
  4  5  1  0
  5  6  1  0
  6  7  1  0
  7  8  1  0
  8  9  1  0
  9 10  1  0
  9 11  1  0
 11 12  1  0
  8 13  1  0
  5  2  1  0
 13  6  1  0
  1 14  1  0
  1 15  1  0
  1 16  1  0
  2 17  1  6
  3 18  1  0
  4 19  1  0
  4 20  1  0
  5 21  1  1
  7 22  1  0
  7 23  1  0
  8 24  1  0
  9 25  1  1
 10 26  1  0
 11 27  1  0
 11 28  1  0
 12 29  1  0
 13 30  1  0
 13 31  1  0
M  END
$$$$

     RDKit          3D

 31 32  0  0  0  0  0  0  0  0999 V2000
    3.7699    0.1444    1.1856 C   0  0  0  0  0  0  0  0  0  0  0  0
    2.8552    0.2556    0.0203 C   0  0  1  0  0  0  0  0  0  0  0  0
    3.2767   -0.4817   -1.1843 N   0  0  0  0  0  0  0  0  0  0  0  0
    1.8328   -0.6321   -1.4491 C   0  0  0  0  0  0  0  0  0  0  0  0
    1.6401   -0.6484    0.0251 C   0  0  2  0  0  0  0  0  0  0  0  0
    0.4860   -0.0975    0.5963 N   0  0  0  0  0  0  0  0  0  0  0  0
   -0.0947    1.0792   -0.0237 C   0  0  0  0  0  0  0  0  0  0  0  0
   -1.4173    0.6105    0.6066 C   0  0  0  0  0  0  0  0  0  0  0  0
   -2.6271    0.8951   -0.2271 C   0  0  1  0  0  0  0  0  0  0  0  0
   -2.5451    0.2730   -1.4499 O   0  0  0  0  0  0  0  0  0  0  0  0
   -3.8286    0.3472    0.5146 C   0  0  0  0  0  0  0  0  0  0  0  0
   -3.6266   -1.0291    0.6640 O   0  0  0  0  0  0  0  0  0  0  0  0
   -0.7814   -0.7484    0.3647 C   0  0  0  0  0  0  0  0  0  0  0  0
    4.8335   -0.0281    0.9295 H   0  0  0  0  0  0  0  0  0  0  0  0
    3.7564    1.1364    1.7177 H   0  0  0  0  0  0  0  0  0  0  0  0
    3.3707   -0.5995    1.8924 H   0  0  0  0  0  0  0  0  0  0  0  0
    2.5715    1.2807   -0.3030 H   0  0  0  0  0  0  0  0  0  0  0  0
    3.6414   -1.4288   -0.8604 H   0  0  0  0  0  0  0  0  0  0  0  0
    1.6500   -1.5957   -1.9788 H   0  0  0  0  0  0  0  0  0  0  0  0
    1.4980    0.2479   -2.0070 H   0  0  0  0  0  0  0  0  0  0  0  0
    1.8820   -1.6402    0.4488 H   0  0  0  0  0  0  0  0  0  0  0  0
   -0.1515    1.0547   -1.1231 H   0  0  0  0  0  0  0  0  0  0  0  0
    0.3155    1.9929    0.4043 H   0  0  0  0  0  0  0  0  0  0  0  0
   -1.4711    0.8690    1.6683 H   0  0  0  0  0  0  0  0  0  0  0  0
   -2.8074    1.9922   -0.3348 H   0  0  0  0  0  0  0  0  0  0  0  0
   -3.0366   -0.5645   -1.4231 H   0  0  0  0  0  0  0  0  0  0  0  0
   -4.7875    0.5761    0.0015 H   0  0  0  0  0  0  0  0  0  0  0  0
   -3.8287    0.7634    1.5633 H   0  0  0  0  0  0  0  0  0  0  0  0
   -4.4176   -1.4535    1.0885 H   0  0  0  0  0  0  0  0  0  0  0  0
   -0.9979   -1.4406    1.2064 H   0  0  0  0  0  0  0  0  0  0  0  0
   -0.9606   -1.1301   -0.6428 H   0  0  0  0  0  0  0  0  0  0  0  0
  1  2  1  0
  2  3  1  0
  3  4  1  0
  4  5  1  0
  5  6  1  0
  6  7  1  0
  7  8  1  0
  8  9  1  0
  9 10  1  0
  9 11  1  0
 11 12  1  0
  8 13  1  0
  5  2  1  0
 13  6  1  0
  1 14  1  0
  1 15  1  0
  1 16  1  0
  2 17  1  6
  3 18  1  0
  4 19  1  0
  4 20  1  0
  5 21  1  1
  7 22  1  0
  7 23  1  0
  8 24  1  0
  9 25  1  6
 10 26  1  0
 11 27  1  0
 11 28  1  0
 12 29  1  0
 13 30  1  0
 13 31  1  0
M  END
$$$$

     RDKit          3D

 31 32  0  0  0  0  0  0  0  0999 V2000
   -2.9272    1.4095   -1.1827 C   0  0  0  0  0  0  0  0  0  0  0  0
   -2.0429    0.7935   -0.0844 C   0  0  1  0  0  0  0  0  0  0  0  0
   -2.9098    0.6115    1.0942 N   0  0  0  0  0  0  0  0  0  0  0  0
   -2.5049   -0.7656    1.1718 C   0  0  0  0  0  0  0  0  0  0  0  0
   -1.8092   -0.6561   -0.1825 C   0  0  2  0  0  0  0  0  0  0  0  0
   -0.5407   -1.2389   -0.1539 N   0  0  0  0  0  0  0  0  0  0  0  0
    0.4241   -0.9677   -1.1691 C   0  0  0  0  0  0  0  0  0  0  0  0
    1.2549   -0.2222   -0.1596 C   0  0  0  0  0  0  0  0  0  0  0  0
    2.7253   -0.5905   -0.1213 C   0  0  1  0  0  0  0  0  0  0  0  0
    3.3025   -0.3478   -1.3630 O   0  0  0  0  0  0  0  0  0  0  0  0
    3.3563    0.3604    0.9072 C   0  0  0  0  0  0  0  0  0  0  0  0
    3.1258    1.6775    0.5443 O   0  0  0  0  0  0  0  0  0  0  0  0
    0.3962   -0.9635    0.8476 C   0  0  0  0  0  0  0  0  0  0  0  0
   -2.3758    1.5438   -2.1153 H   0  0  0  0  0  0  0  0  0  0  0  0
   -3.2644    2.3929   -0.7964 H   0  0  0  0  0  0  0  0  0  0  0  0
   -3.8753    0.8074   -1.3126 H   0  0  0  0  0  0  0  0  0  0  0  0
   -1.2278    1.4875    0.1021 H   0  0  0  0  0  0  0  0  0  0  0  0
   -2.6619    1.2321    1.8888 H   0  0  0  0  0  0  0  0  0  0  0  0
   -3.3176   -1.5165    1.1497 H   0  0  0  0  0  0  0  0  0  0  0  0
   -1.8335   -0.9270    2.0384 H   0  0  0  0  0  0  0  0  0  0  0  0
   -2.4719   -1.0918   -0.9924 H   0  0  0  0  0  0  0  0  0  0  0  0
    0.0913   -0.3901   -2.0586 H   0  0  0  0  0  0  0  0  0  0  0  0
    0.9108   -1.9415   -1.4756 H   0  0  0  0  0  0  0  0  0  0  0  0
    1.0586    0.8530   -0.1128 H   0  0  0  0  0  0  0  0  0  0  0  0
    2.9095   -1.6385    0.1484 H   0  0  0  0  0  0  0  0  0  0  0  0
    2.6746    0.2204   -1.8821 H   0  0  0  0  0  0  0  0  0  0  0  0
    2.8790    0.1867    1.8876 H   0  0  0  0  0  0  0  0  0  0  0  0
    4.4613    0.1716    0.9283 H   0  0  0  0  0  0  0  0  0  0  0  0
    3.1195    1.7933   -0.4411 H   0  0  0  0  0  0  0  0  0  0  0  0
    0.1372   -0.3815    1.7237 H   0  0  0  0  0  0  0  0  0  0  0  0
    0.9360   -1.9020    1.1713 H   0  0  0  0  0  0  0  0  0  0  0  0
  1  2  1  0
  2  3  1  0
  3  4  1  0
  4  5  1  0
  5  6  1  0
  6  7  1  0
  7  8  1  0
  8  9  1  0
  9 10  1  0
  9 11  1  0
 11 12  1  0
  8 13  1  0
  5  2  1  0
 13  6  1  0
  1 14  1  0
  1 15  1  0
  1 16  1  0
  2 17  1  1
  3 18  1  0
  4 19  1  0
  4 20  1  0
  5 21  1  6
  7 22  1  0
  7 23  1  0
  8 24  1  0
  9 25  1  1
 10 26  1  0
 11 27  1  0
 11 28  1  0
 12 29  1  0
 13 30  1  0
 13 31  1  0
M  END
$$$$

     RDKit          3D

 31 32  0  0  0  0  0  0  0  0999 V2000
   -2.7807    1.8649    0.3339 C   0  0  0  0  0  0  0  0  0  0  0  0
   -2.6546    0.3658    0.5509 C   0  0  1  0  0  0  0  0  0  0  0  0
   -3.6260   -0.3090   -0.3048 N   0  0  0  0  0  0  0  0  0  0  0  0
   -2.6546   -1.3645   -0.4728 C   0  0  0  0  0  0  0  0  0  0  0  0
   -1.5729   -0.3025   -0.2218 C   0  0  2  0  0  0  0  0  0  0  0  0
   -0.5056   -0.9081    0.4916 N   0  0  0  0  0  0  0  0  0  0  0  0
    0.4441   -1.5040   -0.4611 C   0  0  0  0  0  0  0  0  0  0  0  0
    1.5496   -0.9454    0.3791 C   0  0  0  0  0  0  0  0  0  0  0  0
    2.5623   -0.2182   -0.4566 C   0  0  1  0  0  0  0  0  0  0  0  0
    2.0400    0.8403   -1.1558 O   0  0  0  0  0  0  0  0  0  0  0  0
    3.7821    0.1842    0.3807 C   0  0  0  0  0  0  0  0  0  0  0  0
    3.4663    1.1547    1.3016 O   0  0  0  0  0  0  0  0  0  0  0  0
    0.5081   -0.0808    1.0439 C   0  0  0  0  0  0  0  0  0  0  0  0
   -3.3293    2.1030   -0.6053 H   0  0  0  0  0  0  0  0  0  0  0  0
   -3.3981    2.2580    1.1674 H   0  0  0  0  0  0  0  0  0  0  0  0
   -1.7985    2.3618    0.2501 H   0  0  0  0  0  0  0  0  0  0  0  0
   -2.7943    0.0368    1.5899 H   0  0  0  0  0  0  0  0  0  0  0  0
   -3.7267    0.2022   -1.2273 H   0  0  0  0  0  0  0  0  0  0  0  0
   -2.6123   -1.8431   -1.4476 H   0  0  0  0  0  0  0  0  0  0  0  0
   -2.7236   -2.0566    0.4116 H   0  0  0  0  0  0  0  0  0  0  0  0
   -1.3197    0.2445   -1.1461 H   0  0  0  0  0  0  0  0  0  0  0  0
    0.3902   -1.0176   -1.4790 H   0  0  0  0  0  0  0  0  0  0  0  0
    0.3565   -2.6021   -0.4969 H   0  0  0  0  0  0  0  0  0  0  0  0
    2.0049   -1.7237    0.9999 H   0  0  0  0  0  0  0  0  0  0  0  0
    2.9535   -0.9511   -1.2065 H   0  0  0  0  0  0  0  0  0  0  0  0
    1.8922    1.6538   -0.6131 H   0  0  0  0  0  0  0  0  0  0  0  0
    4.6119    0.4668   -0.2951 H   0  0  0  0  0  0  0  0  0  0  0  0
    4.0929   -0.7290    0.9163 H   0  0  0  0  0  0  0  0  0  0  0  0
    3.7408    2.0567    1.0637 H   0  0  0  0  0  0  0  0  0  0  0  0
    0.5869   -0.2164    2.1602 H   0  0  0  0  0  0  0  0  0  0  0  0
    0.5145    0.9787    0.7691 H   0  0  0  0  0  0  0  0  0  0  0  0
  1  2  1  0
  2  3  1  0
  3  4  1  0
  4  5  1  0
  5  6  1  0
  6  7  1  0
  7  8  1  0
  8  9  1  0
  9 10  1  0
  9 11  1  0
 11 12  1  0
  8 13  1  0
  5  2  1  0
 13  6  1  0
  1 14  1  0
  1 15  1  0
  1 16  1  0
  2 17  1  1
  3 18  1  0
  4 19  1  0
  4 20  1  0
  5 21  1  6
  7 22  1  0
  7 23  1  0
  8 24  1  0
  9 25  1  6
 10 26  1  0
 11 27  1  0
 11 28  1  0
 12 29  1  0
 13 30  1  0
 13 31  1  0
M  END
$$$$

     RDKit          3D

 31 32  0  0  0  0  0  0  0  0999 V2000
    3.4915    0.7351   -1.5725 C   0  0  0  0  0  0  0  0  0  0  0  0
    2.8251    0.0984   -0.4037 C   0  0  1  0  0  0  0  0  0  0  0  0
    3.4248    0.3732    0.9010 N   0  0  0  0  0  0  0  0  0  0  0  0
    2.0564    0.2454    1.4364 C   0  0  0  0  0  0  0  0  0  0  0  0
    1.5949    0.8126    0.1287 C   0  0  2  0  0  0  0  0  0  0  0  0
    0.4147    0.3681   -0.4597 N   0  0  0  0  0  0  0  0  0  0  0  0
    0.0241   -1.0164   -0.2665 C   0  0  0  0  0  0  0  0  0  0  0  0
   -1.3715   -0.5376   -0.6346 C   0  0  0  0  0  0  0  0  0  0  0  0
   -2.5136   -1.2344    0.0487 C   0  0  1  0  0  0  0  0  0  0  0  0
   -2.4749   -1.1085    1.4246 O   0  0  0  0  0  0  0  0  0  0  0  0
   -3.7943   -0.6028   -0.4502 C   0  0  0  0  0  0  0  0  0  0  0  0
   -3.8291    0.7438   -0.1004 O   0  0  0  0  0  0  0  0  0  0  0  0
   -0.8589    0.6919    0.1449 C   0  0  0  0  0  0  0  0  0  0  0  0
    2.7798    1.3680   -2.1800 H   0  0  0  0  0  0  0  0  0  0  0  0
    4.3906    1.2792   -1.2694 H   0  0  0  0  0  0  0  0  0  0  0  0
    3.8029   -0.0766   -2.2774 H   0  0  0  0  0  0  0  0  0  0  0  0
    2.6949   -1.0125   -0.4851 H   0  0  0  0  0  0  0  0  0  0  0  0
    3.7002    1.3867    0.9593 H   0  0  0  0  0  0  0  0  0  0  0  0
    1.8571   -0.8098    1.6271 H   0  0  0  0  0  0  0  0  0  0  0  0
    1.9107    0.9373    2.3021 H   0  0  0  0  0  0  0  0  0  0  0  0
    1.7340    1.8918    0.0770 H   0  0  0  0  0  0  0  0  0  0  0  0
    0.0626   -1.3665    0.7618 H   0  0  0  0  0  0  0  0  0  0  0  0
    0.3907   -1.7022   -1.0526 H   0  0  0  0  0  0  0  0  0  0  0  0
   -1.5278   -0.2591   -1.6875 H   0  0  0  0  0  0  0  0  0  0  0  0
   -2.5670   -2.3135   -0.2656 H   0  0  0  0  0  0  0  0  0  0  0  0
   -2.9334   -0.2290    1.6281 H   0  0  0  0  0  0  0  0  0  0  0  0
   -4.6895   -1.1529   -0.0961 H   0  0  0  0  0  0  0  0  0  0  0  0
   -3.7315   -0.6192   -1.5756 H   0  0  0  0  0  0  0  0  0  0  0  0
   -4.6858    1.0351    0.2547 H   0  0  0  0  0  0  0  0  0  0  0  0
   -1.3476    1.6091   -0.1671 H   0  0  0  0  0  0  0  0  0  0  0  0
   -0.8300    0.4654    1.2382 H   0  0  0  0  0  0  0  0  0  0  0  0
  1  2  1  0
  2  3  1  0
  3  4  1  0
  4  5  1  0
  5  6  1  0
  6  7  1  0
  7  8  1  0
  8  9  1  0
  9 10  1  0
  9 11  1  0
 11 12  1  0
  8 13  1  0
  5  2  1  0
 13  6  1  0
  1 14  1  0
  1 15  1  0
  1 16  1  0
  2 17  1  6
  3 18  1  0
  4 19  1  0
  4 20  1  0
  5 21  1  1
  7 22  1  0
  7 23  1  0
  8 24  1  0
  9 25  1  1
 10 26  1  0
 11 27  1  0
 11 28  1  0
 12 29  1  0
 13 30  1  0
 13 31  1  0
M  END
$$$$

     RDKit          3D

 31 32  0  0  0  0  0  0  0  0999 V2000
    3.9478    0.9404   -0.6630 C   0  0  0  0  0  0  0  0  0  0  0  0
    2.7667    0.0905   -0.9828 C   0  0  1  0  0  0  0  0  0  0  0  0
    2.7813   -1.2178   -0.3454 N   0  0  0  0  0  0  0  0  0  0  0  0
    1.9681   -0.6718    0.7113 C   0  0  0  0  0  0  0  0  0  0  0  0
    1.4720    0.4387   -0.2223 C   0  0  2  0  0  0  0  0  0  0  0  0
    0.3627    0.0962   -1.0252 N   0  0  0  0  0  0  0  0  0  0  0  0
   -0.7758    0.9911   -1.0866 C   0  0  0  0  0  0  0  0  0  0  0  0
   -1.6008   -0.2529   -1.3400 C   0  0  0  0  0  0  0  0  0  0  0  0
   -3.0223   -0.2801   -0.9499 C   0  0  1  0  0  0  0  0  0  0  0  0
   -3.4853   -1.5697   -1.2837 O   0  0  0  0  0  0  0  0  0  0  0  0
   -3.3693   -0.0027    0.4572 C   0  0  0  0  0  0  0  0  0  0  0  0
   -3.0500    1.3268    0.8325 O   0  0  0  0  0  0  0  0  0  0  0  0
   -0.5745   -0.8822   -0.4455 C   0  0  0  0  0  0  0  0  0  0  0  0
    4.8391    0.2445   -0.6418 H   0  0  0  0  0  0  0  0  0  0  0  0
    4.1513    1.6354   -1.5127 H   0  0  0  0  0  0  0  0  0  0  0  0
    3.8922    1.4582    0.2952 H   0  0  0  0  0  0  0  0  0  0  0  0
    2.6188   -0.0240   -2.0907 H   0  0  0  0  0  0  0  0  0  0  0  0
    3.7720   -1.4419   -0.0879 H   0  0  0  0  0  0  0  0  0  0  0  0
    1.1559   -1.3480    1.0802 H   0  0  0  0  0  0  0  0  0  0  0  0
    2.5699   -0.2807    1.5446 H   0  0  0  0  0  0  0  0  0  0  0  0
    1.5400    1.4337    0.2045 H   0  0  0  0  0  0  0  0  0  0  0  0
   -0.9344    1.4746   -0.0968 H   0  0  0  0  0  0  0  0  0  0  0  0
   -0.8351    1.6654   -1.9577 H   0  0  0  0  0  0  0  0  0  0  0  0
   -1.5133   -0.5530   -2.4132 H   0  0  0  0  0  0  0  0  0  0  0  0
   -3.5530    0.4482   -1.5887 H   0  0  0  0  0  0  0  0  0  0  0  0
   -3.0678   -2.1929   -0.6413 H   0  0  0  0  0  0  0  0  0  0  0  0
   -4.4820   -0.0787    0.5772 H   0  0  0  0  0  0  0  0  0  0  0  0
   -2.9353   -0.7332    1.1828 H   0  0  0  0  0  0  0  0  0  0  0  0
   -3.6076    1.9002    0.2530 H   0  0  0  0  0  0  0  0  0  0  0  0
   -0.2883   -1.9311   -0.6693 H   0  0  0  0  0  0  0  0  0  0  0  0
   -0.7430   -0.6830    0.6140 H   0  0  0  0  0  0  0  0  0  0  0  0
  1  2  1  0
  2  3  1  0
  3  4  1  0
  4  5  1  0
  5  6  1  0
  6  7  1  0
  7  8  1  0
  8  9  1  0
  9 10  1  0
  9 11  1  0
 11 12  1  0
  8 13  1  0
  5  2  1  0
 13  6  1  0
  1 14  1  0
  1 15  1  0
  1 16  1  0
  2 17  1  6
  3 18  1  0
  4 19  1  0
  4 20  1  0
  5 21  1  1
  7 22  1  0
  7 23  1  0
  8 24  1  0
  9 25  1  6
 10 26  1  0
 11 27  1  0
 11 28  1  0
 12 29  1  0
 13 30  1  0
 13 31  1  0
M  END
$$$$
