
     RDKit          3D

 21 21  0  0  0  0  0  0  0  0999 V2000
    3.9356    0.8947    0.6068 O   0  0  0  0  0  0  0  0  0  0  0  0
    3.1172    0.7623   -0.3495 C   0  0  0  0  0  0  0  0  0  0  0  0
    1.7910    0.3770   -0.1158 N   0  0  0  0  0  0  0  0  0  0  0  0
    0.6448    0.1491   -1.0119 C   0  0  0  0  0  0  0  0  0  0  0  0
    0.1284   -0.7999    0.0010 C   0  0  0  0  0  0  0  0  0  0  0  0
   -1.3309   -0.8922    0.2538 C   0  0  2  0  0  0  0  0  0  0  0  0
   -1.9720   -1.2596   -0.9420 O   0  0  0  0  0  0  0  0  0  0  0  0
   -1.9515    0.3333    0.8374 C   0  0  0  0  0  0  0  0  0  0  0  0
   -1.8722    1.3918   -0.0491 O   0  0  0  0  0  0  0  0  0  0  0  0
    0.9239    0.0340    0.9858 C   0  0  0  0  0  0  0  0  0  0  0  0
    3.5051    0.9632   -1.3384 H   0  0  0  0  0  0  0  0  0  0  0  0
    0.9656   -0.3055   -1.9788 H   0  0  0  0  0  0  0  0  0  0  0  0
    0.1282    1.1108   -1.1239 H   0  0  0  0  0  0  0  0  0  0  0  0
    0.5638   -1.8151   -0.1213 H   0  0  0  0  0  0  0  0  0  0  0  0
   -1.5004   -1.7623    0.9556 H   0  0  0  0  0  0  0  0  0  0  0  0
   -1.7798   -2.2093   -1.1609 H   0  0  0  0  0  0  0  0  0  0  0  0
   -3.0457    0.1143    0.9517 H   0  0  0  0  0  0  0  0  0  0  0  0
   -1.5713    0.5839    1.8422 H   0  0  0  0  0  0  0  0  0  0  0  0
   -2.5486    2.0801    0.2390 H   0  0  0  0  0  0  0  0  0  0  0  0
    0.4068    0.8737    1.4456 H   0  0  0  0  0  0  0  0  0  0  0  0
    1.4620   -0.6243    1.7004 H   0  0  0  0  0  0  0  0  0  0  0  0
  1  2  2  0
  2  3  1  0
  3  4  1  0
  4  5  1  0
  5  6  1  0
  6  7  1  0
  6  8  1  0
  8  9  1  0
  5 10  1  0
 10  3  1  0
  2 11  1  0
  4 12  1  0
  4 13  1  0
  5 14  1  0
  6 15  1  1
  7 16  1  0
  8 17  1  0
  8 18  1  0
  9 19  1  0
 10 20  1  0
 10 21  1  0
M  END
$$$$

     RDKit          3D

 21 21  0  0  0  0  0  0  0  0999 V2000
    3.8942    0.8872    0.1076 O   0  0  0  0  0  0  0  0  0  0  0  0
    3.2655   -0.1199    0.4430 C   0  0  0  0  0  0  0  0  0  0  0  0
    1.8998   -0.2863    0.1334 N   0  0  0  0  0  0  0  0  0  0  0  0
    0.8267   -1.2514    0.3187 C   0  0  0  0  0  0  0  0  0  0  0  0
    0.0311   -0.5478   -0.7635 C   0  0  0  0  0  0  0  0  0  0  0  0
   -1.3797   -0.2577   -0.4423 C   0  0  2  0  0  0  0  0  0  0  0  0
   -1.9731    0.3961   -1.5444 O   0  0  0  0  0  0  0  0  0  0  0  0
   -1.5841    0.5710    0.7806 C   0  0  0  0  0  0  0  0  0  0  0  0
   -2.9485    0.7442    1.0770 O   0  0  0  0  0  0  0  0  0  0  0  0
    0.9629    0.5910   -0.5881 C   0  0  0  0  0  0  0  0  0  0  0  0
    3.7643   -0.9053    0.9906 H   0  0  0  0  0  0  0  0  0  0  0  0
    0.3549   -1.2695    1.2997 H   0  0  0  0  0  0  0  0  0  0  0  0
    1.1907   -2.2549    0.0329 H   0  0  0  0  0  0  0  0  0  0  0  0
    0.1668   -1.0865   -1.7273 H   0  0  0  0  0  0  0  0  0  0  0  0
   -1.9883   -1.2206   -0.3444 H   0  0  0  0  0  0  0  0  0  0  0  0
   -2.9674    0.2923   -1.4678 H   0  0  0  0  0  0  0  0  0  0  0  0
   -1.1907    1.6140    0.6563 H   0  0  0  0  0  0  0  0  0  0  0  0
   -1.1212    0.0931    1.6475 H   0  0  0  0  0  0  0  0  0  0  0  0
   -3.2811    1.6298    0.8308 H   0  0  0  0  0  0  0  0  0  0  0  0
    1.3910    0.9886   -1.5369 H   0  0  0  0  0  0  0  0  0  0  0  0
    0.6862    1.3927    0.0966 H   0  0  0  0  0  0  0  0  0  0  0  0
  1  2  2  0
  2  3  1  0
  3  4  1  0
  4  5  1  0
  5  6  1  0
  6  7  1  0
  6  8  1  0
  8  9  1  0
  5 10  1  0
 10  3  1  0
  2 11  1  0
  4 12  1  0
  4 13  1  0
  5 14  1  0
  6 15  1  1
  7 16  1  0
  8 17  1  0
  8 18  1  0
  9 19  1  0
 10 20  1  0
 10 21  1  0
M  END
$$$$

     RDKit          3D

 21 21  0  0  0  0  0  0  0  0999 V2000
   -3.9573   -1.1929   -0.0997 O   0  0  0  0  0  0  0  0  0  0  0  0
   -3.4305   -0.0466   -0.0756 C   0  0  0  0  0  0  0  0  0  0  0  0
   -2.0242    0.0814   -0.0793 N   0  0  0  0  0  0  0  0  0  0  0  0
   -0.8836   -0.8155   -0.1056 C   0  0  0  0  0  0  0  0  0  0  0  0
   -0.1167    0.2158    0.6520 C   0  0  0  0  0  0  0  0  0  0  0  0
    1.3137    0.4221    0.2270 C   0  0  2  0  0  0  0  0  0  0  0  0
    1.3899    0.8190   -1.1018 O   0  0  0  0  0  0  0  0  0  0  0  0
    2.1456   -0.8291    0.3836 C   0  0  0  0  0  0  0  0  0  0  0  0
    3.4543   -0.4966    0.0231 O   0  0  0  0  0  0  0  0  0  0  0  0
   -1.0722    1.1761   -0.0583 C   0  0  0  0  0  0  0  0  0  0  0  0
   -4.0737    0.8118   -0.0525 H   0  0  0  0  0  0  0  0  0  0  0  0
   -0.5031   -0.9543   -1.1369 H   0  0  0  0  0  0  0  0  0  0  0  0
   -1.0409   -1.7820    0.3763 H   0  0  0  0  0  0  0  0  0  0  0  0
   -0.2804    0.2064    1.7371 H   0  0  0  0  0  0  0  0  0  0  0  0
    1.7813    1.2047    0.8476 H   0  0  0  0  0  0  0  0  0  0  0  0
    1.4736    1.7886   -1.2254 H   0  0  0  0  0  0  0  0  0  0  0  0
    2.0915   -1.2154    1.4272 H   0  0  0  0  0  0  0  0  0  0  0  0
    1.7565   -1.5671   -0.3505 H   0  0  0  0  0  0  0  0  0  0  0  0
    4.0194   -1.2929    0.0379 H   0  0  0  0  0  0  0  0  0  0  0  0
   -1.3696    2.0505    0.5326 H   0  0  0  0  0  0  0  0  0  0  0  0
   -0.6735    1.4158   -1.0800 H   0  0  0  0  0  0  0  0  0  0  0  0
  1  2  2  0
  2  3  1  0
  3  4  1  0
  4  5  1  0
  5  6  1  0
  6  7  1  0
  6  8  1  0
  8  9  1  0
  5 10  1  0
 10  3  1  0
  2 11  1  0
  4 12  1  0
  4 13  1  0
  5 14  1  0
  6 15  1  1
  7 16  1  0
  8 17  1  0
  8 18  1  0
  9 19  1  0
 10 20  1  0
 10 21  1  0
M  END
$$$$

     RDKit          3D

 21 21  0  0  0  0  0  0  0  0999 V2000
    3.7366    1.6021   -0.0615 O   0  0  0  0  0  0  0  0  0  0  0  0
    3.3116    0.5028   -0.4400 C   0  0  0  0  0  0  0  0  0  0  0  0
    1.9431    0.1566   -0.3141 N   0  0  0  0  0  0  0  0  0  0  0  0
    1.1574   -1.0089   -0.6489 C   0  0  0  0  0  0  0  0  0  0  0  0
   -0.0665   -0.1258   -0.6389 C   0  0  0  0  0  0  0  0  0  0  0  0
   -1.2597   -0.6859    0.0649 C   0  0  2  0  0  0  0  0  0  0  0  0
   -1.6296   -1.8671   -0.5479 O   0  0  0  0  0  0  0  0  0  0  0  0
   -2.3754    0.3399   -0.0085 C   0  0  0  0  0  0  0  0  0  0  0  0
   -1.9995    1.5162    0.6049 O   0  0  0  0  0  0  0  0  0  0  0  0
    0.7716    0.8286    0.2011 C   0  0  0  0  0  0  0  0  0  0  0  0
    4.0280   -0.1882   -0.8731 H   0  0  0  0  0  0  0  0  0  0  0  0
    1.3675   -1.4649   -1.6326 H   0  0  0  0  0  0  0  0  0  0  0  0
    1.1536   -1.8080    0.1216 H   0  0  0  0  0  0  0  0  0  0  0  0
   -0.2867    0.2853   -1.6253 H   0  0  0  0  0  0  0  0  0  0  0  0
   -1.0162   -0.8797    1.1277 H   0  0  0  0  0  0  0  0  0  0  0  0
   -1.8093   -2.5941    0.0819 H   0  0  0  0  0  0  0  0  0  0  0  0
   -3.3087   -0.0584    0.4064 H   0  0  0  0  0  0  0  0  0  0  0  0
   -2.5728    0.5809   -1.0831 H   0  0  0  0  0  0  0  0  0  0  0  0
   -2.3615    2.2889    0.1213 H   0  0  0  0  0  0  0  0  0  0  0  0
    0.5757    0.7007    1.2734 H   0  0  0  0  0  0  0  0  0  0  0  0
    0.6408    1.8790   -0.1495 H   0  0  0  0  0  0  0  0  0  0  0  0
  1  2  2  0
  2  3  1  0
  3  4  1  0
  4  5  1  0
  5  6  1  0
  6  7  1  0
  6  8  1  0
  8  9  1  0
  5 10  1  0
 10  3  1  0
  2 11  1  0
  4 12  1  0
  4 13  1  0
  5 14  1  0
  6 15  1  1
  7 16  1  0
  8 17  1  0
  8 18  1  0
  9 19  1  0
 10 20  1  0
 10 21  1  0
M  END
$$$$

     RDKit          3D

 21 21  0  0  0  0  0  0  0  0999 V2000
    4.0469    0.5473    0.4600 O   0  0  0  0  0  0  0  0  0  0  0  0
    3.1787   -0.2930    0.8079 C   0  0  0  0  0  0  0  0  0  0  0  0
    1.8216   -0.2114    0.4468 N   0  0  0  0  0  0  0  0  0  0  0  0
    1.0091    0.6976   -0.3272 C   0  0  0  0  0  0  0  0  0  0  0  0
    0.1230   -0.4895   -0.6381 C   0  0  0  0  0  0  0  0  0  0  0  0
   -1.3092   -0.2505   -0.8294 C   0  0  2  0  0  0  0  0  0  0  0  0
   -1.5000    0.6273   -1.8921 O   0  0  0  0  0  0  0  0  0  0  0  0
   -2.1020    0.1926    0.3341 C   0  0  0  0  0  0  0  0  0  0  0  0
   -1.8127    1.4440    0.8213 O   0  0  0  0  0  0  0  0  0  0  0  0
    0.6274   -0.9876    0.6789 C   0  0  0  0  0  0  0  0  0  0  0  0
    3.5042   -1.1194    1.4177 H   0  0  0  0  0  0  0  0  0  0  0  0
    0.4577    1.4311    0.3020 H   0  0  0  0  0  0  0  0  0  0  0  0
    1.5106    1.1418   -1.2114 H   0  0  0  0  0  0  0  0  0  0  0  0
    0.5898   -1.0756   -1.4615 H   0  0  0  0  0  0  0  0  0  0  0  0
   -1.7693   -1.2254   -1.1764 H   0  0  0  0  0  0  0  0  0  0  0  0
   -1.6548    0.1937   -2.7485 H   0  0  0  0  0  0  0  0  0  0  0  0
   -3.1842    0.2289    0.0035 H   0  0  0  0  0  0  0  0  0  0  0  0
   -2.0840   -0.5977    1.1128 H   0  0  0  0  0  0  0  0  0  0  0  0
   -2.3697    1.6526    1.5837 H   0  0  0  0  0  0  0  0  0  0  0  0
    0.1236   -0.6489    1.5792 H   0  0  0  0  0  0  0  0  0  0  0  0
    0.7934   -2.0914    0.7367 H   0  0  0  0  0  0  0  0  0  0  0  0
  1  2  2  0
  2  3  1  0
  3  4  1  0
  4  5  1  0
  5  6  1  0
  6  7  1  0
  6  8  1  0
  8  9  1  0
  5 10  1  0
 10  3  1  0
  2 11  1  0
  4 12  1  0
  4 13  1  0
  5 14  1  0
  6 15  1  6
  7 16  1  0
  8 17  1  0
  8 18  1  0
  9 19  1  0
 10 20  1  0
 10 21  1  0
M  END
$$$$

     RDKit          3D

 21 21  0  0  0  0  0  0  0  0999 V2000
   -4.1162   -1.0041    0.3422 O   0  0  0  0  0  0  0  0  0  0  0  0
   -3.3704   -0.0840    0.7489 C   0  0  0  0  0  0  0  0  0  0  0  0
   -2.0607    0.0778    0.2628 N   0  0  0  0  0  0  0  0  0  0  0  0
   -1.2253   -0.6333   -0.7193 C   0  0  0  0  0  0  0  0  0  0  0  0
   -0.0556   -0.2821    0.1765 C   0  0  0  0  0  0  0  0  0  0  0  0
    1.1709   -0.0128   -0.6482 C   0  0  2  0  0  0  0  0  0  0  0  0
    1.4450   -1.1880   -1.3714 O   0  0  0  0  0  0  0  0  0  0  0  0
    2.3853    0.2065    0.2538 C   0  0  0  0  0  0  0  0  0  0  0  0
    3.5202    0.3467   -0.5341 O   0  0  0  0  0  0  0  0  0  0  0  0
   -0.9188    0.9556    0.4472 C   0  0  0  0  0  0  0  0  0  0  0  0
   -3.7374    0.6043    1.4906 H   0  0  0  0  0  0  0  0  0  0  0  0
   -1.1964   -0.0258   -1.6431 H   0  0  0  0  0  0  0  0  0  0  0  0
   -1.4489   -1.6941   -0.8189 H   0  0  0  0  0  0  0  0  0  0  0  0
    0.0607   -0.9586    1.0216 H   0  0  0  0  0  0  0  0  0  0  0  0
    1.0271    0.8437   -1.3048 H   0  0  0  0  0  0  0  0  0  0  0  0
    1.5221   -1.9027   -0.6730 H   0  0  0  0  0  0  0  0  0  0  0  0
    2.4709   -0.6813    0.9070 H   0  0  0  0  0  0  0  0  0  0  0  0
    2.2771    1.1258    0.8529 H   0  0  0  0  0  0  0  0  0  0  0  0
    3.8791    1.2579   -0.5169 H   0  0  0  0  0  0  0  0  0  0  0  0
   -0.8251    1.6506   -0.4281 H   0  0  0  0  0  0  0  0  0  0  0  0
   -0.8035    1.3978    1.4319 H   0  0  0  0  0  0  0  0  0  0  0  0
  1  2  2  0
  2  3  1  0
  3  4  1  0
  4  5  1  0
  5  6  1  0
  6  7  1  0
  6  8  1  0
  8  9  1  0
  5 10  1  0
 10  3  1  0
  2 11  1  0
  4 12  1  0
  4 13  1  0
  5 14  1  0
  6 15  1  6
  7 16  1  0
  8 17  1  0
  8 18  1  0
  9 19  1  0
 10 20  1  0
 10 21  1  0
M  END
$$$$

     RDKit          3D

 21 21  0  0  0  0  0  0  0  0999 V2000
    3.9558    0.5738    0.9916 O   0  0  0  0  0  0  0  0  0  0  0  0
    3.0940    1.0214    0.1961 C   0  0  0  0  0  0  0  0  0  0  0  0
    1.8383    0.3990    0.1064 N   0  0  0  0  0  0  0  0  0  0  0  0
    0.6257    0.5932   -0.6475 C   0  0  0  0  0  0  0  0  0  0  0  0
   -0.1151    0.0494    0.5539 C   0  0  0  0  0  0  0  0  0  0  0  0
   -1.3053   -0.8127    0.2235 C   0  0  2  0  0  0  0  0  0  0  0  0
   -0.9506   -1.9258   -0.5212 O   0  0  0  0  0  0  0  0  0  0  0  0
   -2.2582    0.0680   -0.5907 C   0  0  0  0  0  0  0  0  0  0  0  0
   -2.5895    1.1705    0.1887 O   0  0  0  0  0  0  0  0  0  0  0  0
    1.1922   -0.7242    0.7339 C   0  0  0  0  0  0  0  0  0  0  0  0
    3.3882    1.8878   -0.3875 H   0  0  0  0  0  0  0  0  0  0  0  0
    0.5866   -0.1124   -1.5031 H   0  0  0  0  0  0  0  0  0  0  0  0
    0.3646    1.6436   -0.8859 H   0  0  0  0  0  0  0  0  0  0  0  0
   -0.2558    0.7682    1.3620 H   0  0  0  0  0  0  0  0  0  0  0  0
   -1.8524   -1.1470    1.1155 H   0  0  0  0  0  0  0  0  0  0  0  0
   -1.2463   -1.8844   -1.4592 H   0  0  0  0  0  0  0  0  0  0  0  0
   -3.1412   -0.5063   -0.9235 H   0  0  0  0  0  0  0  0  0  0  0  0
   -1.7213    0.4322   -1.5015 H   0  0  0  0  0  0  0  0  0  0  0  0
   -2.3013    1.0619    1.1443 H   0  0  0  0  0  0  0  0  0  0  0  0
    1.4617   -0.9523    1.7614 H   0  0  0  0  0  0  0  0  0  0  0  0
    1.2298   -1.6040    0.0428 H   0  0  0  0  0  0  0  0  0  0  0  0
  1  2  2  0
  2  3  1  0
  3  4  1  0
  4  5  1  0
  5  6  1  0
  6  7  1  0
  6  8  1  0
  8  9  1  0
  5 10  1  0
 10  3  1  0
  2 11  1  0
  4 12  1  0
  4 13  1  0
  5 14  1  0
  6 15  1  1
  7 16  1  0
  8 17  1  0
  8 18  1  0
  9 19  1  0
 10 20  1  0
 10 21  1  0
M  END
$$$$

     RDKit          3D

 21 21  0  0  0  0  0  0  0  0999 V2000
    4.2798   -0.0665    0.4849 O   0  0  0  0  0  0  0  0  0  0  0  0
    3.4282    0.6346   -0.1186 C   0  0  0  0  0  0  0  0  0  0  0  0
    2.0807    0.1883   -0.2172 N   0  0  0  0  0  0  0  0  0  0  0  0
    1.3059   -0.9598    0.2170 C   0  0  0  0  0  0  0  0  0  0  0  0
    0.1343   -0.0094    0.3432 C   0  0  0  0  0  0  0  0  0  0  0  0
   -1.2029   -0.5771    0.0152 C   0  0  2  0  0  0  0  0  0  0  0  0
   -1.2687   -1.0346   -1.2729 O   0  0  0  0  0  0  0  0  0  0  0  0
   -2.2482    0.4791    0.2983 C   0  0  0  0  0  0  0  0  0  0  0  0
   -3.5061   -0.0562    0.0933 O   0  0  0  0  0  0  0  0  0  0  0  0
    0.8519    0.6904   -0.8075 C   0  0  0  0  0  0  0  0  0  0  0  0
    3.6946    1.5816   -0.5720 H   0  0  0  0  0  0  0  0  0  0  0  0
    1.6324   -1.4399    1.1396 H   0  0  0  0  0  0  0  0  0  0  0  0
    1.1279   -1.6518   -0.6350 H   0  0  0  0  0  0  0  0  0  0  0  0
    0.1888    0.5684    1.2624 H   0  0  0  0  0  0  0  0  0  0  0  0
   -1.3649   -1.4611    0.6904 H   0  0  0  0  0  0  0  0  0  0  0  0
   -2.1520   -1.4513   -1.4553 H   0  0  0  0  0  0  0  0  0  0  0  0
   -2.0957    0.8394    1.3428 H   0  0  0  0  0  0  0  0  0  0  0  0
   -2.1168    1.3172   -0.3936 H   0  0  0  0  0  0  0  0  0  0  0  0
   -4.1485    0.4677    0.6453 H   0  0  0  0  0  0  0  0  0  0  0  0
    0.7369    1.7702   -0.8518 H   0  0  0  0  0  0  0  0  0  0  0  0
    0.6423    0.1708   -1.7818 H   0  0  0  0  0  0  0  0  0  0  0  0
  1  2  2  0
  2  3  1  0
  3  4  1  0
  4  5  1  0
  5  6  1  0
  6  7  1  0
  6  8  1  0
  8  9  1  0
  5 10  1  0
 10  3  1  0
  2 11  1  0
  4 12  1  0
  4 13  1  0
  5 14  1  0
  6 15  1  1
  7 16  1  0
  8 17  1  0
  8 18  1  0
  9 19  1  0
 10 20  1  0
 10 21  1  0
M  END
$$$$
