
     RDKit          3D

 27 28  0  0  0  0  0  0  0  0999 V2000
    2.6930   -0.5403    0.7511 C   0  0  0  0  0  0  0  0  0  0  0  0
    2.3421    0.1611   -0.4362 N   0  0  0  0  0  0  0  0  0  0  0  0
    3.1764    0.6371   -1.3818 N   0  0  0  0  0  0  0  0  0  0  0  0
    2.4413    1.2392   -2.2873 N   0  0  0  0  0  0  0  0  0  0  0  0
    1.1943    1.1514   -1.9407 N   0  0  0  0  0  0  0  0  0  0  0  0
    1.0827    0.4814   -0.7807 C   0  0  0  0  0  0  0  0  0  0  0  0
   -0.1914    0.1848   -0.1583 C   0  0  1  0  0  0  0  0  0  0  0  0
   -0.8026    1.5107    0.3159 C   0  0  0  0  0  0  0  0  0  0  0  0
   -2.0506    1.3572    0.9925 N   0  0  0  0  0  0  0  0  0  0  0  0
   -1.1395   -0.2216   -1.3059 C   0  0  0  0  0  0  0  0  0  0  0  0
   -1.2122   -1.6265   -1.2010 O   0  0  0  0  0  0  0  0  0  0  0  0
   -1.5523   -1.7025    0.1721 C   0  0  0  0  0  0  0  0  0  0  0  0
   -0.3635   -0.9252    0.7535 C   0  0  2  0  0  0  0  0  0  0  0  0
   -0.7682   -0.5935    2.0448 O   0  0  0  0  0  0  0  0  0  0  0  0
    2.1717   -0.2617    1.6768 H   0  0  0  0  0  0  0  0  0  0  0  0
    3.7661   -0.2483    0.9867 H   0  0  0  0  0  0  0  0  0  0  0  0
    2.7977   -1.6513    0.5936 H   0  0  0  0  0  0  0  0  0  0  0  0
   -0.9819    2.1897   -0.5741 H   0  0  0  0  0  0  0  0  0  0  0  0
   -0.0242    2.0055    0.9305 H   0  0  0  0  0  0  0  0  0  0  0  0
   -1.9997    1.7454    1.9798 H   0  0  0  0  0  0  0  0  0  0  0  0
   -2.8068    1.9131    0.5471 H   0  0  0  0  0  0  0  0  0  0  0  0
   -0.7458    0.0659   -2.2719 H   0  0  0  0  0  0  0  0  0  0  0  0
   -2.1609    0.1339   -1.0907 H   0  0  0  0  0  0  0  0  0  0  0  0
   -2.5022   -1.2274    0.3623 H   0  0  0  0  0  0  0  0  0  0  0  0
   -1.4937   -2.7715    0.4235 H   0  0  0  0  0  0  0  0  0  0  0  0
    0.4415   -1.6832    0.8328 H   0  0  0  0  0  0  0  0  0  0  0  0
   -1.3114   -1.3232    2.4128 H   0  0  0  0  0  0  0  0  0  0  0  0
  1  2  1  0
  2  3  1  0
  3  4  2  0
  4  5  1  0
  5  6  2  0
  6  7  1  0
  7  8  1  1
  8  9  1  0
  7 10  1  0
 10 11  1  0
 11 12  1  0
 12 13  1  0
 13 14  1  0
  6  2  1  0
 13  7  1  0
  1 15  1  0
  1 16  1  0
  1 17  1  0
  8 18  1  0
  8 19  1  0
  9 20  1  0
  9 21  1  0
 10 22  1  0
 10 23  1  0
 12 24  1  0
 12 25  1  0
 13 26  1  1
 14 27  1  0
M  END
$$$$

     RDKit          3D

 27 28  0  0  0  0  0  0  0  0999 V2000
   -2.7567   -0.4631   -0.2372 C   0  0  0  0  0  0  0  0  0  0  0  0
   -1.7293   -0.3298   -1.2123 N   0  0  0  0  0  0  0  0  0  0  0  0
   -1.9424   -0.4477   -2.4920 N   0  0  0  0  0  0  0  0  0  0  0  0
   -0.8173   -0.3185   -3.1516 N   0  0  0  0  0  0  0  0  0  0  0  0
    0.1283   -0.1027   -2.2602 N   0  0  0  0  0  0  0  0  0  0  0  0
   -0.4083   -0.1049   -1.0205 C   0  0  0  0  0  0  0  0  0  0  0  0
    0.2612    0.0831    0.2578 C   0  0  1  0  0  0  0  0  0  0  0  0
   -0.0751    1.3677    0.9390 C   0  0  0  0  0  0  0  0  0  0  0  0
    0.3696    2.4574    0.1087 N   0  0  0  0  0  0  0  0  0  0  0  0
    0.1648   -1.1451    1.0837 C   0  0  0  0  0  0  0  0  0  0  0  0
    1.3383   -1.8707    0.9568 O   0  0  0  0  0  0  0  0  0  0  0  0
    2.0666   -1.3394   -0.0731 C   0  0  0  0  0  0  0  0  0  0  0  0
    1.8012    0.1451    0.0779 C   0  0  2  0  0  0  0  0  0  0  0  0
    2.3087    0.5679    1.2919 O   0  0  0  0  0  0  0  0  0  0  0  0
   -2.4404   -0.4270    0.8286 H   0  0  0  0  0  0  0  0  0  0  0  0
   -3.5540    0.2935   -0.3637 H   0  0  0  0  0  0  0  0  0  0  0  0
   -3.2372   -1.5002   -0.3063 H   0  0  0  0  0  0  0  0  0  0  0  0
   -1.1474    1.5251    1.1022 H   0  0  0  0  0  0  0  0  0  0  0  0
    0.4513    1.4810    1.9214 H   0  0  0  0  0  0  0  0  0  0  0  0
    0.3563    2.2764   -0.8789 H   0  0  0  0  0  0  0  0  0  0  0  0
    0.4787    3.3713    0.5080 H   0  0  0  0  0  0  0  0  0  0  0  0
   -0.6047   -1.8471    0.6101 H   0  0  0  0  0  0  0  0  0  0  0  0
   -0.1556   -1.0275    2.1062 H   0  0  0  0  0  0  0  0  0  0  0  0
    1.7473   -1.6941   -1.0765 H   0  0  0  0  0  0  0  0  0  0  0  0
    3.1441   -1.5386    0.1168 H   0  0  0  0  0  0  0  0  0  0  0  0
    2.0833    0.7274   -0.7821 H   0  0  0  0  0  0  0  0  0  0  0  0
    2.1686   -0.1395    1.9453 H   0  0  0  0  0  0  0  0  0  0  0  0
  1  2  1  0
  2  3  1  0
  3  4  2  0
  4  5  1  0
  5  6  2  0
  6  7  1  0
  7  8  1  1
  8  9  1  0
  7 10  1  0
 10 11  1  0
 11 12  1  0
 12 13  1  0
 13 14  1  0
  6  2  1  0
 13  7  1  0
  1 15  1  0
  1 16  1  0
  1 17  1  0
  8 18  1  0
  8 19  1  0
  9 20  1  0
  9 21  1  0
 10 22  1  0
 10 23  1  0
 12 24  1  0
 12 25  1  0
 13 26  1  6
 14 27  1  0
M  END
$$$$

     RDKit          3D

 27 28  0  0  0  0  0  0  0  0999 V2000
    2.2433   -1.2126    0.8960 C   0  0  0  0  0  0  0  0  0  0  0  0
    1.9737   -0.7498   -0.4454 N   0  0  0  0  0  0  0  0  0  0  0  0
    2.8153   -0.8856   -1.4886 N   0  0  0  0  0  0  0  0  0  0  0  0
    2.1990   -0.3380   -2.5066 N   0  0  0  0  0  0  0  0  0  0  0  0
    1.0251    0.1272   -2.1500 N   0  0  0  0  0  0  0  0  0  0  0  0
    0.8487   -0.1283   -0.8138 C   0  0  0  0  0  0  0  0  0  0  0  0
   -0.3637    0.2664   -0.1295 C   0  0  1  0  0  0  0  0  0  0  0  0
   -0.3894    1.7132    0.3018 C   0  0  0  0  0  0  0  0  0  0  0  0
   -0.2391    2.6300   -0.7956 N   0  0  0  0  0  0  0  0  0  0  0  0
   -1.5273    0.0591   -1.1089 C   0  0  0  0  0  0  0  0  0  0  0  0
   -1.6386   -1.3503   -1.0271 O   0  0  0  0  0  0  0  0  0  0  0  0
   -1.7862   -1.5427    0.3499 C   0  0  0  0  0  0  0  0  0  0  0  0
   -0.8583   -0.5387    0.9996 C   0  0  2  0  0  0  0  0  0  0  0  0
   -1.6755    0.2833    1.7995 O   0  0  0  0  0  0  0  0  0  0  0  0
    1.7635   -2.2130    1.1214 H   0  0  0  0  0  0  0  0  0  0  0  0
    2.1655   -0.4784    1.6830 H   0  0  0  0  0  0  0  0  0  0  0  0
    3.3452   -1.5120    0.9175 H   0  0  0  0  0  0  0  0  0  0  0  0
   -1.3893    1.9272    0.7639 H   0  0  0  0  0  0  0  0  0  0  0  0
    0.3342    1.8746    1.1337 H   0  0  0  0  0  0  0  0  0  0  0  0
   -0.0056    2.1313   -1.6471 H   0  0  0  0  0  0  0  0  0  0  0  0
    0.5241    3.2997   -0.5271 H   0  0  0  0  0  0  0  0  0  0  0  0
   -2.4267    0.5563   -0.7509 H   0  0  0  0  0  0  0  0  0  0  0  0
   -1.2030    0.3687   -2.1065 H   0  0  0  0  0  0  0  0  0  0  0  0
   -2.8494   -1.3662    0.5888 H   0  0  0  0  0  0  0  0  0  0  0  0
   -1.5633   -2.5753    0.6669 H   0  0  0  0  0  0  0  0  0  0  0  0
   -0.1419   -0.9779    1.6969 H   0  0  0  0  0  0  0  0  0  0  0  0
   -1.1803    0.6319    2.5783 H   0  0  0  0  0  0  0  0  0  0  0  0
  1  2  1  0
  2  3  1  0
  3  4  2  0
  4  5  1  0
  5  6  2  0
  6  7  1  0
  7  8  1  1
  8  9  1  0
  7 10  1  0
 10 11  1  0
 11 12  1  0
 12 13  1  0
 13 14  1  0
  6  2  1  0
 13  7  1  0
  1 15  1  0
  1 16  1  0
  1 17  1  0
  8 18  1  0
  8 19  1  0
  9 20  1  0
  9 21  1  0
 10 22  1  0
 10 23  1  0
 12 24  1  0
 12 25  1  0
 13 26  1  1
 14 27  1  0
M  END
$$$$

     RDKit          3D

 27 28  0  0  0  0  0  0  0  0999 V2000
    2.6486    0.4335    0.9654 C   0  0  0  0  0  0  0  0  0  0  0  0
    2.2434   -0.2352   -0.2293 N   0  0  0  0  0  0  0  0  0  0  0  0
    3.1062   -0.8650   -1.0407 N   0  0  0  0  0  0  0  0  0  0  0  0
    2.5011   -1.4039   -2.0684 N   0  0  0  0  0  0  0  0  0  0  0  0
    1.2291   -1.1403   -1.9578 N   0  0  0  0  0  0  0  0  0  0  0  0
    1.0434   -0.4099   -0.8172 C   0  0  0  0  0  0  0  0  0  0  0  0
   -0.2529    0.0660   -0.3639 C   0  0  1  0  0  0  0  0  0  0  0  0
   -0.4299    1.5589   -0.3134 C   0  0  0  0  0  0  0  0  0  0  0  0
   -1.7347    1.9932    0.1236 N   0  0  0  0  0  0  0  0  0  0  0  0
   -1.3210   -0.4079   -1.3808 C   0  0  0  0  0  0  0  0  0  0  0  0
   -1.3871   -1.7619   -1.0637 O   0  0  0  0  0  0  0  0  0  0  0  0
   -1.5223   -1.8261    0.2981 C   0  0  0  0  0  0  0  0  0  0  0  0
   -0.7335   -0.6602    0.8713 C   0  0  2  0  0  0  0  0  0  0  0  0
   -1.5725    0.0834    1.6495 O   0  0  0  0  0  0  0  0  0  0  0  0
    2.4425   -0.1409    1.9130 H   0  0  0  0  0  0  0  0  0  0  0  0
    2.3631    1.4689    1.0947 H   0  0  0  0  0  0  0  0  0  0  0  0
    3.7936    0.4766    0.9521 H   0  0  0  0  0  0  0  0  0  0  0  0
   -0.2986    1.9350   -1.3600 H   0  0  0  0  0  0  0  0  0  0  0  0
    0.2869    2.0030    0.3849 H   0  0  0  0  0  0  0  0  0  0  0  0
   -1.7900    2.2991    1.1250 H   0  0  0  0  0  0  0  0  0  0  0  0
   -2.1860    2.6678   -0.5310 H   0  0  0  0  0  0  0  0  0  0  0  0
   -2.2446    0.1149   -1.1320 H   0  0  0  0  0  0  0  0  0  0  0  0
   -0.9505   -0.2434   -2.3985 H   0  0  0  0  0  0  0  0  0  0  0  0
   -2.5836   -1.7764    0.6155 H   0  0  0  0  0  0  0  0  0  0  0  0
   -1.1322   -2.8128    0.6502 H   0  0  0  0  0  0  0  0  0  0  0  0
    0.1239   -1.0983    1.4608 H   0  0  0  0  0  0  0  0  0  0  0  0
   -1.6426   -0.3182    2.5525 H   0  0  0  0  0  0  0  0  0  0  0  0
  1  2  1  0
  2  3  1  0
  3  4  2  0
  4  5  1  0
  5  6  2  0
  6  7  1  0
  7  8  1  1
  8  9  1  0
  7 10  1  0
 10 11  1  0
 11 12  1  0
 12 13  1  0
 13 14  1  0
  6  2  1  0
 13  7  1  0
  1 15  1  0
  1 16  1  0
  1 17  1  0
  8 18  1  0
  8 19  1  0
  9 20  1  0
  9 21  1  0
 10 22  1  0
 10 23  1  0
 12 24  1  0
 12 25  1  0
 13 26  1  1
 14 27  1  0
M  END
$$$$

     RDKit          3D

 27 28  0  0  0  0  0  0  0  0999 V2000
    2.5976   -0.0891   -1.1239 C   0  0  0  0  0  0  0  0  0  0  0  0
    2.2137   -0.4277    0.2249 N   0  0  0  0  0  0  0  0  0  0  0  0
    3.0058   -0.8494    1.2176 N   0  0  0  0  0  0  0  0  0  0  0  0
    2.2680   -1.0523    2.2936 N   0  0  0  0  0  0  0  0  0  0  0  0
    1.0356   -0.7675    1.9953 N   0  0  0  0  0  0  0  0  0  0  0  0
    0.9788   -0.3704    0.6920 C   0  0  0  0  0  0  0  0  0  0  0  0
   -0.3033    0.0111    0.1029 C   0  0  1  0  0  0  0  0  0  0  0  0
   -0.8991    1.1280    0.9308 C   0  0  0  0  0  0  0  0  0  0  0  0
    0.0152    2.2465    0.9338 N   0  0  0  0  0  0  0  0  0  0  0  0
   -0.3650    0.3427   -1.3173 C   0  0  0  0  0  0  0  0  0  0  0  0
   -1.7238    0.1924   -1.6827 O   0  0  0  0  0  0  0  0  0  0  0  0
   -2.3238   -0.6464   -0.7912 C   0  0  0  0  0  0  0  0  0  0  0  0
   -1.2661   -1.1960    0.1420 C   0  0  2  0  0  0  0  0  0  0  0  0
   -1.7008   -1.4513    1.4108 O   0  0  0  0  0  0  0  0  0  0  0  0
    2.4881   -0.9537   -1.8365 H   0  0  0  0  0  0  0  0  0  0  0  0
    2.1711    0.8480   -1.4890 H   0  0  0  0  0  0  0  0  0  0  0  0
    3.7131    0.0807   -1.0983 H   0  0  0  0  0  0  0  0  0  0  0  0
   -1.8330    1.5211    0.4326 H   0  0  0  0  0  0  0  0  0  0  0  0
   -1.1828    0.7763    1.9469 H   0  0  0  0  0  0  0  0  0  0  0  0
   -0.4975    3.1519    0.9012 H   0  0  0  0  0  0  0  0  0  0  0  0
    0.6067    2.1884    0.0843 H   0  0  0  0  0  0  0  0  0  0  0  0
    0.1664   -0.3783   -1.9759 H   0  0  0  0  0  0  0  0  0  0  0  0
   -0.1539    1.3968   -1.5950 H   0  0  0  0  0  0  0  0  0  0  0  0
   -3.0112   -0.0302   -0.1439 H   0  0  0  0  0  0  0  0  0  0  0  0
   -2.9028   -1.4633   -1.2777 H   0  0  0  0  0  0  0  0  0  0  0  0
   -0.7409   -2.0339   -0.3534 H   0  0  0  0  0  0  0  0  0  0  0  0
   -2.3562   -2.1744    1.3763 H   0  0  0  0  0  0  0  0  0  0  0  0
  1  2  1  0
  2  3  1  0
  3  4  2  0
  4  5  1  0
  5  6  2  0
  6  7  1  0
  7  8  1  1
  8  9  1  0
  7 10  1  0
 10 11  1  0
 11 12  1  0
 12 13  1  0
 13 14  1  0
  6  2  1  0
 13  7  1  0
  1 15  1  0
  1 16  1  0
  1 17  1  0
  8 18  1  0
  8 19  1  0
  9 20  1  0
  9 21  1  0
 10 22  1  0
 10 23  1  0
 12 24  1  0
 12 25  1  0
 13 26  1  6
 14 27  1  0
M  END
$$$$

     RDKit          3D

 27 28  0  0  0  0  0  0  0  0999 V2000
    2.9190    0.5345    0.1357 C   0  0  0  0  0  0  0  0  0  0  0  0
    2.2343   -0.7618    0.1197 N   0  0  0  0  0  0  0  0  0  0  0  0
    2.8940   -1.9675    0.2055 N   0  0  0  0  0  0  0  0  0  0  0  0
    1.8865   -2.8841    0.1417 N   0  0  0  0  0  0  0  0  0  0  0  0
    0.7269   -2.2567    0.0141 N   0  0  0  0  0  0  0  0  0  0  0  0
    0.9166   -0.9232    0.0011 C   0  0  0  0  0  0  0  0  0  0  0  0
   -0.2073    0.0049   -0.0432 C   0  0  1  0  0  0  0  0  0  0  0  0
    0.0340    1.4033    0.3876 C   0  0  0  0  0  0  0  0  0  0  0  0
   -1.2354    2.1142    0.2326 N   0  0  0  0  0  0  0  0  0  0  0  0
   -0.8044   -0.0146   -1.4579 C   0  0  0  0  0  0  0  0  0  0  0  0
   -2.0402   -0.6029   -1.3763 O   0  0  0  0  0  0  0  0  0  0  0  0
   -2.1051   -1.3838   -0.2310 C   0  0  0  0  0  0  0  0  0  0  0  0
   -1.3405   -0.5458    0.7741 C   0  0  2  0  0  0  0  0  0  0  0  0
   -2.1407    0.4522    1.3267 O   0  0  0  0  0  0  0  0  0  0  0  0
    4.0081    0.3705    0.2424 H   0  0  0  0  0  0  0  0  0  0  0  0
    2.8267    1.0336   -0.8679 H   0  0  0  0  0  0  0  0  0  0  0  0
    2.6113    1.1311    1.0005 H   0  0  0  0  0  0  0  0  0  0  0  0
    0.7717    1.9553   -0.1992 H   0  0  0  0  0  0  0  0  0  0  0  0
    0.2465    1.4433    1.4853 H   0  0  0  0  0  0  0  0  0  0  0  0
   -1.1360    3.0302    0.7123 H   0  0  0  0  0  0  0  0  0  0  0  0
   -1.4057    2.3380   -0.7500 H   0  0  0  0  0  0  0  0  0  0  0  0
   -0.1368   -0.7670   -2.0300 H   0  0  0  0  0  0  0  0  0  0  0  0
   -0.7020    0.9272   -1.9718 H   0  0  0  0  0  0  0  0  0  0  0  0
   -1.6222   -2.3687   -0.3628 H   0  0  0  0  0  0  0  0  0  0  0  0
   -3.1654   -1.5392    0.0442 H   0  0  0  0  0  0  0  0  0  0  0  0
   -1.0482   -1.1782    1.6089 H   0  0  0  0  0  0  0  0  0  0  0  0
   -2.9857    0.4551    0.8576 H   0  0  0  0  0  0  0  0  0  0  0  0
  1  2  1  0
  2  3  1  0
  3  4  2  0
  4  5  1  0
  5  6  2  0
  6  7  1  0
  7  8  1  1
  8  9  1  0
  7 10  1  0
 10 11  1  0
 11 12  1  0
 12 13  1  0
 13 14  1  0
  6  2  1  0
 13  7  1  0
  1 15  1  0
  1 16  1  0
  1 17  1  0
  8 18  1  0
  8 19  1  0
  9 20  1  0
  9 21  1  0
 10 22  1  0
 10 23  1  0
 12 24  1  0
 12 25  1  0
 13 26  1  1
 14 27  1  0
M  END
$$$$

     RDKit          3D

 27 28  0  0  0  0  0  0  0  0999 V2000
    2.6706   -0.5869   -0.5658 C   0  0  0  0  0  0  0  0  0  0  0  0
    2.1606    0.3303    0.3907 N   0  0  0  0  0  0  0  0  0  0  0  0
    2.9451    1.0838    1.1882 N   0  0  0  0  0  0  0  0  0  0  0  0
    2.1639    1.8199    1.9278 N   0  0  0  0  0  0  0  0  0  0  0  0
    0.9356    1.5662    1.6273 N   0  0  0  0  0  0  0  0  0  0  0  0
    0.8727    0.6287    0.6604 C   0  0  0  0  0  0  0  0  0  0  0  0
   -0.3518    0.0988    0.0944 C   0  0  1  0  0  0  0  0  0  0  0  0
   -1.5662    0.8536    0.6416 C   0  0  0  0  0  0  0  0  0  0  0  0
   -1.5176    2.2663    0.2877 N   0  0  0  0  0  0  0  0  0  0  0  0
   -0.4524    0.1896   -1.4031 C   0  0  0  0  0  0  0  0  0  0  0  0
   -0.4652   -1.1502   -1.8681 O   0  0  0  0  0  0  0  0  0  0  0  0
   -1.3427   -1.7448   -0.9230 C   0  0  0  0  0  0  0  0  0  0  0  0
   -0.6116   -1.3603    0.3525 C   0  0  2  0  0  0  0  0  0  0  0  0
   -1.3383   -1.5902    1.5024 O   0  0  0  0  0  0  0  0  0  0  0  0
    3.7595   -0.3590   -0.7441 H   0  0  0  0  0  0  0  0  0  0  0  0
    2.6819   -1.6461   -0.2220 H   0  0  0  0  0  0  0  0  0  0  0  0
    2.2099   -0.5054   -1.5717 H   0  0  0  0  0  0  0  0  0  0  0  0
   -2.5028    0.4454    0.2771 H   0  0  0  0  0  0  0  0  0  0  0  0
   -1.5776    0.8119    1.7650 H   0  0  0  0  0  0  0  0  0  0  0  0
   -0.8806    2.4698   -0.5186 H   0  0  0  0  0  0  0  0  0  0  0  0
   -2.4892    2.5447    0.0521 H   0  0  0  0  0  0  0  0  0  0  0  0
    0.2788    0.8147   -1.8968 H   0  0  0  0  0  0  0  0  0  0  0  0
   -1.4678    0.5679   -1.7292 H   0  0  0  0  0  0  0  0  0  0  0  0
   -2.3106   -1.2044   -0.9019 H   0  0  0  0  0  0  0  0  0  0  0  0
   -1.4357   -2.8250   -1.0548 H   0  0  0  0  0  0  0  0  0  0  0  0
    0.3145   -1.9664    0.3766 H   0  0  0  0  0  0  0  0  0  0  0  0
   -0.6832   -1.5530    2.2556 H   0  0  0  0  0  0  0  0  0  0  0  0
  1  2  1  0
  2  3  1  0
  3  4  2  0
  4  5  1  0
  5  6  2  0
  6  7  1  0
  7  8  1  1
  8  9  1  0
  7 10  1  0
 10 11  1  0
 11 12  1  0
 12 13  1  0
 13 14  1  0
  6  2  1  0
 13  7  1  0
  1 15  1  0
  1 16  1  0
  1 17  1  0
  8 18  1  0
  8 19  1  0
  9 20  1  0
  9 21  1  0
 10 22  1  0
 10 23  1  0
 12 24  1  0
 12 25  1  0
 13 26  1  1
 14 27  1  0
M  END
$$$$

     RDKit          3D

 27 28  0  0  0  0  0  0  0  0999 V2000
    2.5530   -0.4934    0.5444 C   0  0  0  0  0  0  0  0  0  0  0  0
    2.0195    0.0642   -0.6606 N   0  0  0  0  0  0  0  0  0  0  0  0
    2.7197    0.4364   -1.7077 N   0  0  0  0  0  0  0  0  0  0  0  0
    1.9511    0.9065   -2.6602 N   0  0  0  0  0  0  0  0  0  0  0  0
    0.7322    0.8460   -2.2326 N   0  0  0  0  0  0  0  0  0  0  0  0
    0.7384    0.3152   -0.9655 C   0  0  0  0  0  0  0  0  0  0  0  0
   -0.4715    0.1113   -0.1817 C   0  0  1  0  0  0  0  0  0  0  0  0
   -0.6775    1.1975    0.8618 C   0  0  0  0  0  0  0  0  0  0  0  0
   -0.7866    2.4980    0.2071 N   0  0  0  0  0  0  0  0  0  0  0  0
   -1.7062    0.1060   -1.0721 C   0  0  0  0  0  0  0  0  0  0  0  0
   -2.4215   -1.0270   -0.8165 O   0  0  0  0  0  0  0  0  0  0  0  0
   -2.0041   -1.5509    0.3790 C   0  0  0  0  0  0  0  0  0  0  0  0
   -0.5198   -1.2767    0.3748 C   0  0  2  0  0  0  0  0  0  0  0  0
   -0.0817   -1.3568    1.6920 O   0  0  0  0  0  0  0  0  0  0  0  0
    2.2425    0.0291    1.4730 H   0  0  0  0  0  0  0  0  0  0  0  0
    2.4227   -1.6006    0.6217 H   0  0  0  0  0  0  0  0  0  0  0  0
    3.6857   -0.3721    0.5446 H   0  0  0  0  0  0  0  0  0  0  0  0
    0.2037    1.2896    1.5386 H   0  0  0  0  0  0  0  0  0  0  0  0
   -1.5893    1.0299    1.4300 H   0  0  0  0  0  0  0  0  0  0  0  0
   -0.6432    3.2591    0.9013 H   0  0  0  0  0  0  0  0  0  0  0  0
    0.0215    2.5603   -0.4752 H   0  0  0  0  0  0  0  0  0  0  0  0
   -2.3593    0.9778   -0.9220 H   0  0  0  0  0  0  0  0  0  0  0  0
   -1.3553    0.1003   -2.1369 H   0  0  0  0  0  0  0  0  0  0  0  0
   -2.4661   -1.0812    1.2663 H   0  0  0  0  0  0  0  0  0  0  0  0
   -2.1655   -2.6529    0.4159 H   0  0  0  0  0  0  0  0  0  0  0  0
   -0.0278   -1.9799   -0.3066 H   0  0  0  0  0  0  0  0  0  0  0  0
   -0.0146   -2.3358    1.8872 H   0  0  0  0  0  0  0  0  0  0  0  0
  1  2  1  0
  2  3  1  0
  3  4  2  0
  4  5  1  0
  5  6  2  0
  6  7  1  0
  7  8  1  1
  8  9  1  0
  7 10  1  0
 10 11  1  0
 11 12  1  0
 12 13  1  0
 13 14  1  0
  6  2  1  0
 13  7  1  0
  1 15  1  0
  1 16  1  0
  1 17  1  0
  8 18  1  0
  8 19  1  0
  9 20  1  0
  9 21  1  0
 10 22  1  0
 10 23  1  0
 12 24  1  0
 12 25  1  0
 13 26  1  6
 14 27  1  0
M  END
$$$$
