
     RDKit          3D

 22 22  0  0  0  0  0  0  0  0999 V2000
    3.2474   -0.5855   -0.7778 N   0  0  0  0  0  0  0  0  0  0  0  0
    2.9006   -0.2414    0.5338 C   0  0  0  0  0  0  0  0  0  0  0  0
    3.7738   -0.3831    1.4667 O   0  0  0  0  0  0  0  0  0  0  0  0
    1.6015    0.2863    0.9874 C   0  0  0  0  0  0  0  0  0  0  0  0
    0.6454    0.4091   -0.0982 N   0  0  0  0  0  0  0  0  0  0  0  0
   -0.6063    1.0463    0.2603 C   0  0  0  0  0  0  0  0  0  0  0  0
   -1.3379   -0.0772   -0.4519 C   0  0  0  0  0  0  0  0  0  0  0  0
   -1.5768    0.1173   -1.7888 F   0  0  0  0  0  0  0  0  0  0  0  0
   -2.5910   -0.3719    0.2775 C   0  0  0  0  0  0  0  0  0  0  0  0
   -3.5222    0.7216    0.3600 N   0  0  0  0  0  0  0  0  0  0  0  0
   -2.9234   -1.8152    0.9487 S   0  0  0  0  0  0  0  0  0  0  0  0
   -0.1258   -0.8615   -0.1058 C   0  0  0  0  0  0  0  0  0  0  0  0
    3.7773    0.0919   -1.3559 H   0  0  0  0  0  0  0  0  0  0  0  0
    2.9916   -1.4996   -1.1836 H   0  0  0  0  0  0  0  0  0  0  0  0
    1.2106   -0.4091    1.7857 H   0  0  0  0  0  0  0  0  0  0  0  0
    1.7384    1.2841    1.4374 H   0  0  0  0  0  0  0  0  0  0  0  0
   -0.8091    2.0229   -0.1957 H   0  0  0  0  0  0  0  0  0  0  0  0
   -0.7572    0.9672    1.3505 H   0  0  0  0  0  0  0  0  0  0  0  0
   -4.1147    0.8868   -0.4699 H   0  0  0  0  0  0  0  0  0  0  0  0
   -3.5649    1.2954    1.2385 H   0  0  0  0  0  0  0  0  0  0  0  0
   -0.2114   -1.3234    0.8977 H   0  0  0  0  0  0  0  0  0  0  0  0
    0.2542   -1.5610   -0.8618 H   0  0  0  0  0  0  0  0  0  0  0  0
  1  2  1  0
  2  3  2  0
  2  4  1  0
  4  5  1  0
  5  6  1  0
  6  7  1  0
  7  8  1  0
  7  9  1  0
  9 10  1  0
  9 11  2  0
  7 12  1  0
 12  5  1  0
  1 13  1  0
  1 14  1  0
  4 15  1  0
  4 16  1  0
  6 17  1  0
  6 18  1  0
 10 19  1  0
 10 20  1  0
 12 21  1  0
 12 22  1  0
M  END
$$$$

     RDKit          3D

 22 22  0  0  0  0  0  0  0  0999 V2000
    3.6044    1.0999   -0.2689 N   0  0  0  0  0  0  0  0  0  0  0  0
    2.3787    0.4768   -0.7141 C   0  0  0  0  0  0  0  0  0  0  0  0
    2.0003    0.5826   -1.9070 O   0  0  0  0  0  0  0  0  0  0  0  0
    1.5434   -0.3014    0.2324 C   0  0  0  0  0  0  0  0  0  0  0  0
    0.4030   -0.8102   -0.4372 N   0  0  0  0  0  0  0  0  0  0  0  0
   -0.5948    0.0957   -0.8874 C   0  0  0  0  0  0  0  0  0  0  0  0
   -1.6252   -0.7550   -0.1367 C   0  0  0  0  0  0  0  0  0  0  0  0
   -2.4614   -1.4615   -0.9926 F   0  0  0  0  0  0  0  0  0  0  0  0
   -2.3132    0.0559    0.8773 C   0  0  0  0  0  0  0  0  0  0  0  0
   -3.0390    1.1842    0.4776 N   0  0  0  0  0  0  0  0  0  0  0  0
   -2.2373   -0.3429    2.4389 S   0  0  0  0  0  0  0  0  0  0  0  0
   -0.4991   -1.6224    0.3496 C   0  0  0  0  0  0  0  0  0  0  0  0
    4.2103    1.5592   -0.9828 H   0  0  0  0  0  0  0  0  0  0  0  0
    3.8631    1.0846    0.7314 H   0  0  0  0  0  0  0  0  0  0  0  0
    2.1646   -1.1732    0.5628 H   0  0  0  0  0  0  0  0  0  0  0  0
    1.3227    0.2649    1.1608 H   0  0  0  0  0  0  0  0  0  0  0  0
   -0.5473    1.1329   -0.5566 H   0  0  0  0  0  0  0  0  0  0  0  0
   -0.7491    0.0137   -1.9910 H   0  0  0  0  0  0  0  0  0  0  0  0
   -4.0524    1.1126    0.2847 H   0  0  0  0  0  0  0  0  0  0  0  0
   -2.5637    2.0975    0.3732 H   0  0  0  0  0  0  0  0  0  0  0  0
   -0.4854   -2.6613   -0.0456 H   0  0  0  0  0  0  0  0  0  0  0  0
   -0.3228   -1.6322    1.4312 H   0  0  0  0  0  0  0  0  0  0  0  0
  1  2  1  0
  2  3  2  0
  2  4  1  0
  4  5  1  0
  5  6  1  0
  6  7  1  0
  7  8  1  0
  7  9  1  0
  9 10  1  0
  9 11  2  0
  7 12  1  0
 12  5  1  0
  1 13  1  0
  1 14  1  0
  4 15  1  0
  4 16  1  0
  6 17  1  0
  6 18  1  0
 10 19  1  0
 10 20  1  0
 12 21  1  0
 12 22  1  0
M  END
$$$$

     RDKit          3D

 22 22  0  0  0  0  0  0  0  0999 V2000
   -3.9967   -0.2985   -0.6203 N   0  0  0  0  0  0  0  0  0  0  0  0
   -2.6738   -0.6860   -0.3213 C   0  0  0  0  0  0  0  0  0  0  0  0
   -2.3330   -1.8795   -0.4474 O   0  0  0  0  0  0  0  0  0  0  0  0
   -1.6957    0.2935    0.1348 C   0  0  0  0  0  0  0  0  0  0  0  0
   -0.3961   -0.3047    0.3891 N   0  0  0  0  0  0  0  0  0  0  0  0
    0.2960   -0.7766   -0.7656 C   0  0  0  0  0  0  0  0  0  0  0  0
    1.3452    0.3087   -0.5721 C   0  0  0  0  0  0  0  0  0  0  0  0
    1.2549    1.3534   -1.4450 F   0  0  0  0  0  0  0  0  0  0  0  0
    2.7102   -0.2511   -0.3832 C   0  0  0  0  0  0  0  0  0  0  0  0
    3.8306    0.6060   -0.2812 N   0  0  0  0  0  0  0  0  0  0  0  0
    2.9187   -1.8607   -0.2856 S   0  0  0  0  0  0  0  0  0  0  0  0
    0.6524    0.6016    0.7535 C   0  0  0  0  0  0  0  0  0  0  0  0
   -4.8076   -0.4278    0.0229 H   0  0  0  0  0  0  0  0  0  0  0  0
   -4.1535    0.1511   -1.5619 H   0  0  0  0  0  0  0  0  0  0  0  0
   -1.5699    1.1752   -0.5181 H   0  0  0  0  0  0  0  0  0  0  0  0
   -2.0356    0.6652    1.1496 H   0  0  0  0  0  0  0  0  0  0  0  0
    0.7177   -1.7654   -0.6145 H   0  0  0  0  0  0  0  0  0  0  0  0
   -0.1919   -0.6205   -1.7430 H   0  0  0  0  0  0  0  0  0  0  0  0
    4.1026    1.0762    0.5986 H   0  0  0  0  0  0  0  0  0  0  0  0
    4.4354    0.7910   -1.1275 H   0  0  0  0  0  0  0  0  0  0  0  0
    1.2484    0.1978    1.5994 H   0  0  0  0  0  0  0  0  0  0  0  0
    0.3416    1.6509    0.8647 H   0  0  0  0  0  0  0  0  0  0  0  0
  1  2  1  0
  2  3  2  0
  2  4  1  0
  4  5  1  0
  5  6  1  0
  6  7  1  0
  7  8  1  0
  7  9  1  0
  9 10  1  0
  9 11  2  0
  7 12  1  0
 12  5  1  0
  1 13  1  0
  1 14  1  0
  4 15  1  0
  4 16  1  0
  6 17  1  0
  6 18  1  0
 10 19  1  0
 10 20  1  0
 12 21  1  0
 12 22  1  0
M  END
$$$$

     RDKit          3D

 22 22  0  0  0  0  0  0  0  0999 V2000
   -3.8308    0.3439   -0.3851 N   0  0  0  0  0  0  0  0  0  0  0  0
   -2.6008    0.5246    0.2786 C   0  0  0  0  0  0  0  0  0  0  0  0
   -2.3568    1.6236    0.8254 O   0  0  0  0  0  0  0  0  0  0  0  0
   -1.6200   -0.5573    0.3290 C   0  0  0  0  0  0  0  0  0  0  0  0
   -0.4618   -0.1372    1.0516 N   0  0  0  0  0  0  0  0  0  0  0  0
    0.5869   -1.1450    1.1637 C   0  0  0  0  0  0  0  0  0  0  0  0
    1.5852   -0.0535    0.8728 C   0  0  0  0  0  0  0  0  0  0  0  0
    2.1925    0.4502    2.0069 F   0  0  0  0  0  0  0  0  0  0  0  0
    2.5046   -0.3051   -0.2394 C   0  0  0  0  0  0  0  0  0  0  0  0
    3.4676    0.6638   -0.5763 N   0  0  0  0  0  0  0  0  0  0  0  0
    2.4112   -1.6867   -1.0721 S   0  0  0  0  0  0  0  0  0  0  0  0
    0.4142    0.7997    0.3914 C   0  0  0  0  0  0  0  0  0  0  0  0
   -4.5351   -0.3444   -0.0640 H   0  0  0  0  0  0  0  0  0  0  0  0
   -4.0075    0.9466   -1.2339 H   0  0  0  0  0  0  0  0  0  0  0  0
   -1.4026   -0.8833   -0.7174 H   0  0  0  0  0  0  0  0  0  0  0  0
   -2.0300   -1.4574    0.8424 H   0  0  0  0  0  0  0  0  0  0  0  0
    0.4844   -1.9239    0.3888 H   0  0  0  0  0  0  0  0  0  0  0  0
    0.7082   -1.5248    2.2012 H   0  0  0  0  0  0  0  0  0  0  0  0
    3.2576    1.6710   -0.7236 H   0  0  0  0  0  0  0  0  0  0  0  0
    4.4591    0.3622   -0.6878 H   0  0  0  0  0  0  0  0  0  0  0  0
    0.4871    1.8014    0.8592 H   0  0  0  0  0  0  0  0  0  0  0  0
    0.2869    0.8315   -0.7049 H   0  0  0  0  0  0  0  0  0  0  0  0
  1  2  1  0
  2  3  2  0
  2  4  1  0
  4  5  1  0
  5  6  1  0
  6  7  1  0
  7  8  1  0
  7  9  1  0
  9 10  1  0
  9 11  2  0
  7 12  1  0
 12  5  1  0
  1 13  1  0
  1 14  1  0
  4 15  1  0
  4 16  1  0
  6 17  1  0
  6 18  1  0
 10 19  1  0
 10 20  1  0
 12 21  1  0
 12 22  1  0
M  END
$$$$

     RDKit          3D

 22 22  0  0  0  0  0  0  0  0999 V2000
    2.9749    1.0822    0.6356 N   0  0  0  0  0  0  0  0  0  0  0  0
    2.7885    0.0807   -0.3424 C   0  0  0  0  0  0  0  0  0  0  0  0
    3.7259   -0.0949   -1.1628 O   0  0  0  0  0  0  0  0  0  0  0  0
    1.5982   -0.7724   -0.4845 C   0  0  0  0  0  0  0  0  0  0  0  0
    0.5645   -0.5416    0.4657 N   0  0  0  0  0  0  0  0  0  0  0  0
   -0.1660    0.6814    0.4267 C   0  0  0  0  0  0  0  0  0  0  0  0
   -1.1463    0.0986   -0.5575 C   0  0  0  0  0  0  0  0  0  0  0  0
   -0.7271    0.3252   -1.8403 F   0  0  0  0  0  0  0  0  0  0  0  0
   -2.5656    0.3652   -0.3325 C   0  0  0  0  0  0  0  0  0  0  0  0
   -3.2186   -0.0302    0.8521 N   0  0  0  0  0  0  0  0  0  0  0  0
   -3.4541    1.1410   -1.4651 S   0  0  0  0  0  0  0  0  0  0  0  0
   -0.6567   -1.2187    0.0549 C   0  0  0  0  0  0  0  0  0  0  0  0
    2.9059    2.0743    0.3659 H   0  0  0  0  0  0  0  0  0  0  0  0
    3.1769    0.8161    1.6059 H   0  0  0  0  0  0  0  0  0  0  0  0
    1.9509   -1.8323   -0.3221 H   0  0  0  0  0  0  0  0  0  0  0  0
    1.2926   -0.7412   -1.5389 H   0  0  0  0  0  0  0  0  0  0  0  0
   -0.6728    0.8606    1.4137 H   0  0  0  0  0  0  0  0  0  0  0  0
    0.3906    1.5661    0.0601 H   0  0  0  0  0  0  0  0  0  0  0  0
   -3.6883   -0.9447    0.9014 H   0  0  0  0  0  0  0  0  0  0  0  0
   -3.2237    0.6004    1.6680 H   0  0  0  0  0  0  0  0  0  0  0  0
   -0.5126   -2.0342   -0.6853 H   0  0  0  0  0  0  0  0  0  0  0  0
   -1.3371   -1.4817    0.8847 H   0  0  0  0  0  0  0  0  0  0  0  0
  1  2  1  0
  2  3  2  0
  2  4  1  0
  4  5  1  0
  5  6  1  0
  6  7  1  0
  7  8  1  0
  7  9  1  0
  9 10  1  0
  9 11  2  0
  7 12  1  0
 12  5  1  0
  1 13  1  0
  1 14  1  0
  4 15  1  0
  4 16  1  0
  6 17  1  0
  6 18  1  0
 10 19  1  0
 10 20  1  0
 12 21  1  0
 12 22  1  0
M  END
$$$$

     RDKit          3D

 22 22  0  0  0  0  0  0  0  0999 V2000
    3.0028   -0.0602    0.9919 N   0  0  0  0  0  0  0  0  0  0  0  0
    2.9172   -0.5123   -0.3425 C   0  0  0  0  0  0  0  0  0  0  0  0
    3.8948   -1.0836   -0.8634 O   0  0  0  0  0  0  0  0  0  0  0  0
    1.6613   -0.2911   -1.0824 C   0  0  0  0  0  0  0  0  0  0  0  0
    0.6822    0.3837   -0.2788 N   0  0  0  0  0  0  0  0  0  0  0  0
   -0.5647    0.6142   -0.9834 C   0  0  0  0  0  0  0  0  0  0  0  0
   -1.2364    0.4560    0.3887 C   0  0  0  0  0  0  0  0  0  0  0  0
   -1.1186    1.6087    1.1340 F   0  0  0  0  0  0  0  0  0  0  0  0
   -2.5714   -0.1193    0.2680 C   0  0  0  0  0  0  0  0  0  0  0  0
   -3.5398    0.5978   -0.5097 N   0  0  0  0  0  0  0  0  0  0  0  0
   -3.0438   -1.5169    0.9519 S   0  0  0  0  0  0  0  0  0  0  0  0
   -0.0957   -0.4989    0.6070 C   0  0  0  0  0  0  0  0  0  0  0  0
    3.3283    0.9309    1.1318 H   0  0  0  0  0  0  0  0  0  0  0  0
    2.7576   -0.6741    1.7856 H   0  0  0  0  0  0  0  0  0  0  0  0
    1.2936   -1.2552   -1.5125 H   0  0  0  0  0  0  0  0  0  0  0  0
    1.9107    0.3981   -1.9339 H   0  0  0  0  0  0  0  0  0  0  0  0
   -0.6946    1.5823   -1.4547 H   0  0  0  0  0  0  0  0  0  0  0  0
   -0.8685   -0.2724   -1.6060 H   0  0  0  0  0  0  0  0  0  0  0  0
   -3.7836    0.3162   -1.4757 H   0  0  0  0  0  0  0  0  0  0  0  0
   -4.0088    1.4154   -0.1021 H   0  0  0  0  0  0  0  0  0  0  0  0
   -0.2443   -1.4561    0.0862 H   0  0  0  0  0  0  0  0  0  0  0  0
    0.3217   -0.5634    1.6083 H   0  0  0  0  0  0  0  0  0  0  0  0
  1  2  1  0
  2  3  2  0
  2  4  1  0
  4  5  1  0
  5  6  1  0
  6  7  1  0
  7  8  1  0
  7  9  1  0
  9 10  1  0
  9 11  2  0
  7 12  1  0
 12  5  1  0
  1 13  1  0
  1 14  1  0
  4 15  1  0
  4 16  1  0
  6 17  1  0
  6 18  1  0
 10 19  1  0
 10 20  1  0
 12 21  1  0
 12 22  1  0
M  END
$$$$

     RDKit          3D

 22 22  0  0  0  0  0  0  0  0999 V2000
   -3.7631    0.6537   -0.4013 N   0  0  0  0  0  0  0  0  0  0  0  0
   -2.3775    0.5189   -0.1446 C   0  0  0  0  0  0  0  0  0  0  0  0
   -1.8989    1.2028    0.7829 O   0  0  0  0  0  0  0  0  0  0  0  0
   -1.5772   -0.3893   -0.9499 C   0  0  0  0  0  0  0  0  0  0  0  0
   -0.1979   -0.4956   -0.6665 N   0  0  0  0  0  0  0  0  0  0  0  0
    0.5935    0.6684   -0.9593 C   0  0  0  0  0  0  0  0  0  0  0  0
    1.2249    0.6713    0.3943 C   0  0  0  0  0  0  0  0  0  0  0  0
    1.0578    1.7686    1.1785 F   0  0  0  0  0  0  0  0  0  0  0  0
    2.6801    0.3116    0.3641 C   0  0  0  0  0  0  0  0  0  0  0  0
    3.4710    0.2867    1.5431 N   0  0  0  0  0  0  0  0  0  0  0  0
    3.3933   -0.0652   -1.0773 S   0  0  0  0  0  0  0  0  0  0  0  0
    0.2926   -0.5003    0.6617 C   0  0  0  0  0  0  0  0  0  0  0  0
   -4.4084   -0.0459   -0.0091 H   0  0  0  0  0  0  0  0  0  0  0  0
   -4.1237    1.4641   -0.9864 H   0  0  0  0  0  0  0  0  0  0  0  0
   -2.0042   -1.4286   -1.0013 H   0  0  0  0  0  0  0  0  0  0  0  0
   -1.6560   -0.0402   -2.0274 H   0  0  0  0  0  0  0  0  0  0  0  0
    1.3279    0.4611   -1.7627 H   0  0  0  0  0  0  0  0  0  0  0  0
   -0.0885    1.5182   -1.1755 H   0  0  0  0  0  0  0  0  0  0  0  0
    3.7304   -0.6507    1.9162 H   0  0  0  0  0  0  0  0  0  0  0  0
    3.7777    1.1598    2.0139 H   0  0  0  0  0  0  0  0  0  0  0  0
    0.9380   -1.4228    0.8010 H   0  0  0  0  0  0  0  0  0  0  0  0
   -0.3917   -0.3963    1.5057 H   0  0  0  0  0  0  0  0  0  0  0  0
  1  2  1  0
  2  3  2  0
  2  4  1  0
  4  5  1  0
  5  6  1  0
  6  7  1  0
  7  8  1  0
  7  9  1  0
  9 10  1  0
  9 11  2  0
  7 12  1  0
 12  5  1  0
  1 13  1  0
  1 14  1  0
  4 15  1  0
  4 16  1  0
  6 17  1  0
  6 18  1  0
 10 19  1  0
 10 20  1  0
 12 21  1  0
 12 22  1  0
M  END
$$$$

     RDKit          3D

 22 22  0  0  0  0  0  0  0  0999 V2000
    2.7364    0.9381   -0.4700 N   0  0  0  0  0  0  0  0  0  0  0  0
    2.8283   -0.2718    0.2590 C   0  0  0  0  0  0  0  0  0  0  0  0
    3.9633   -0.7790    0.4240 O   0  0  0  0  0  0  0  0  0  0  0  0
    1.6187   -0.8840    0.7888 C   0  0  0  0  0  0  0  0  0  0  0  0
    0.4713   -0.0974    0.4543 N   0  0  0  0  0  0  0  0  0  0  0  0
   -0.7330   -0.7095    0.9832 C   0  0  0  0  0  0  0  0  0  0  0  0
   -1.4285   -0.3698   -0.3076 C   0  0  0  0  0  0  0  0  0  0  0  0
   -2.1588   -1.4065   -0.8533 F   0  0  0  0  0  0  0  0  0  0  0  0
   -2.1814    0.8997   -0.1658 C   0  0  0  0  0  0  0  0  0  0  0  0
   -3.2014    0.9668    0.8139 N   0  0  0  0  0  0  0  0  0  0  0  0
   -1.8591    2.1916   -1.1011 S   0  0  0  0  0  0  0  0  0  0  0  0
   -0.0430   -0.2129   -0.8663 C   0  0  0  0  0  0  0  0  0  0  0  0
    3.0052    1.8514   -0.0152 H   0  0  0  0  0  0  0  0  0  0  0  0
    2.4123    1.0069   -1.4595 H   0  0  0  0  0  0  0  0  0  0  0  0
    1.4970   -1.9535    0.5250 H   0  0  0  0  0  0  0  0  0  0  0  0
    1.7067   -0.8758    1.9149 H   0  0  0  0  0  0  0  0  0  0  0  0
   -0.6965   -1.7940    1.1315 H   0  0  0  0  0  0  0  0  0  0  0  0
   -1.0928   -0.1189    1.8714 H   0  0  0  0  0  0  0  0  0  0  0  0
   -4.1890    0.9939    0.4863 H   0  0  0  0  0  0  0  0  0  0  0  0
   -2.9366    0.9867    1.8162 H   0  0  0  0  0  0  0  0  0  0  0  0
    0.2532   -1.0976   -1.4548 H   0  0  0  0  0  0  0  0  0  0  0  0
    0.0276    0.7357   -1.4750 H   0  0  0  0  0  0  0  0  0  0  0  0
  1  2  1  0
  2  3  2  0
  2  4  1  0
  4  5  1  0
  5  6  1  0
  6  7  1  0
  7  8  1  0
  7  9  1  0
  9 10  1  0
  9 11  2  0
  7 12  1  0
 12  5  1  0
  1 13  1  0
  1 14  1  0
  4 15  1  0
  4 16  1  0
  6 17  1  0
  6 18  1  0
 10 19  1  0
 10 20  1  0
 12 21  1  0
 12 22  1  0
M  END
$$$$
