
     RDKit          3D

 30 31  0  0  0  0  0  0  0  0999 V2000
   -2.7219    0.8956   -2.2132 C   0  0  0  0  0  0  0  0  0  0  0  0
   -2.8360    0.2951   -0.8778 N   0  0  0  0  0  0  0  0  0  0  0  0
   -3.9454    0.0545   -0.1989 N   0  0  0  0  0  0  0  0  0  0  0  0
   -3.6529   -0.5041    0.9894 C   0  0  0  0  0  0  0  0  0  0  0  0
   -4.5374   -0.8442    1.8566 N   0  0  0  0  0  0  0  0  0  0  0  0
   -2.3280   -0.6082    1.0394 N   0  0  0  0  0  0  0  0  0  0  0  0
   -1.8154   -0.1191   -0.1052 C   0  0  0  0  0  0  0  0  0  0  0  0
   -0.5849   -0.0258   -0.4765 N   0  0  0  0  0  0  0  0  0  0  0  0
    0.4914   -0.4645    0.3423 C   0  0  1  0  0  0  0  0  0  0  0  0
    1.7237   -0.9646   -0.4260 C   0  0  0  0  0  0  0  0  0  0  0  0
    2.5171   -0.3875    0.7288 C   0  0  1  0  0  0  0  0  0  0  0  0
    3.8245    0.2413    0.3712 C   0  0  0  0  0  0  0  0  0  0  0  0
    4.7583   -0.6434   -0.2564 N   0  0  0  0  0  0  0  0  0  0  0  0
    1.4180    0.6537    0.8257 C   0  0  0  0  0  0  0  0  0  0  0  0
   -2.0944    1.8200   -2.0566 H   0  0  0  0  0  0  0  0  0  0  0  0
   -3.7193    1.1184   -2.5963 H   0  0  0  0  0  0  0  0  0  0  0  0
   -2.1365    0.2560   -2.8911 H   0  0  0  0  0  0  0  0  0  0  0  0
   -4.8998    0.2762   -0.5574 H   0  0  0  0  0  0  0  0  0  0  0  0
   -4.3460   -1.2719    2.7708 H   0  0  0  0  0  0  0  0  0  0  0  0
   -1.7687   -0.9955    1.8150 H   0  0  0  0  0  0  0  0  0  0  0  0
    0.2260   -1.1741    1.1581 H   0  0  0  0  0  0  0  0  0  0  0  0
    1.7795   -2.0551   -0.5302 H   0  0  0  0  0  0  0  0  0  0  0  0
    1.8343   -0.3872   -1.3834 H   0  0  0  0  0  0  0  0  0  0  0  0
    2.4989   -1.0603    1.5843 H   0  0  0  0  0  0  0  0  0  0  0  0
    4.2561    0.6691    1.2942 H   0  0  0  0  0  0  0  0  0  0  0  0
    3.6138    1.1047   -0.3177 H   0  0  0  0  0  0  0  0  0  0  0  0
    5.4105   -0.0429   -0.8348 H   0  0  0  0  0  0  0  0  0  0  0  0
    4.2926   -1.3227   -0.8666 H   0  0  0  0  0  0  0  0  0  0  0  0
    1.5394    1.3806   -0.0022 H   0  0  0  0  0  0  0  0  0  0  0  0
    1.2025    1.0385    1.8146 H   0  0  0  0  0  0  0  0  0  0  0  0
  1  2  1  0
  2  3  1  0
  3  4  1  0
  4  5  2  3
  4  6  1  0
  6  7  1  0
  7  8  2  3
  8  9  1  0
  9 10  1  0
 10 11  1  0
 11 12  1  0
 12 13  1  0
 11 14  1  0
  7  2  1  0
 14  9  1  0
  1 15  1  0
  1 16  1  0
  1 17  1  0
  3 18  1  0
  5 19  1  0
  6 20  1  0
  9 21  1  1
 10 22  1  0
 10 23  1  0
 11 24  1  1
 12 25  1  0
 12 26  1  0
 13 27  1  0
 13 28  1  0
 14 29  1  0
 14 30  1  0
M  END
$$$$

     RDKit          3D

 30 31  0  0  0  0  0  0  0  0999 V2000
   -2.8901   -1.1508    1.5488 C   0  0  0  0  0  0  0  0  0  0  0  0
   -2.5968   -0.1723    0.5028 N   0  0  0  0  0  0  0  0  0  0  0  0
   -3.4010    0.8283    0.1803 N   0  0  0  0  0  0  0  0  0  0  0  0
   -2.8283    1.5305   -0.8154 C   0  0  0  0  0  0  0  0  0  0  0  0
   -3.2547    2.5804   -1.4362 N   0  0  0  0  0  0  0  0  0  0  0  0
   -1.6417    0.9120   -1.0828 N   0  0  0  0  0  0  0  0  0  0  0  0
   -1.4952   -0.1451   -0.2663 C   0  0  0  0  0  0  0  0  0  0  0  0
   -0.5425   -1.0076   -0.1639 N   0  0  0  0  0  0  0  0  0  0  0  0
    0.6379   -1.0134   -0.9576 C   0  0  1  0  0  0  0  0  0  0  0  0
    1.4880    0.2377   -0.8444 C   0  0  0  0  0  0  0  0  0  0  0  0
    2.6241   -0.5690   -0.2616 C   0  0  1  0  0  0  0  0  0  0  0  0
    3.0602   -0.0093    1.0550 C   0  0  0  0  0  0  0  0  0  0  0  0
    3.5011    1.3573    0.8472 N   0  0  0  0  0  0  0  0  0  0  0  0
    1.7480   -1.7799   -0.2267 C   0  0  0  0  0  0  0  0  0  0  0  0
   -3.8703   -1.6196    1.3123 H   0  0  0  0  0  0  0  0  0  0  0  0
   -2.9682   -0.6446    2.5270 H   0  0  0  0  0  0  0  0  0  0  0  0
   -2.1452   -1.9615    1.5456 H   0  0  0  0  0  0  0  0  0  0  0  0
   -4.3429    1.0727    0.6060 H   0  0  0  0  0  0  0  0  0  0  0  0
   -4.1988    2.9478   -1.1156 H   0  0  0  0  0  0  0  0  0  0  0  0
   -0.9296    1.1754   -1.7927 H   0  0  0  0  0  0  0  0  0  0  0  0
    0.5300   -1.3083   -2.0190 H   0  0  0  0  0  0  0  0  0  0  0  0
    1.0634    1.0163   -0.1798 H   0  0  0  0  0  0  0  0  0  0  0  0
    1.8078    0.6746   -1.8141 H   0  0  0  0  0  0  0  0  0  0  0  0
    3.4992   -0.6919   -0.9322 H   0  0  0  0  0  0  0  0  0  0  0  0
    2.1942    0.0250    1.7703 H   0  0  0  0  0  0  0  0  0  0  0  0
    3.9080   -0.5573    1.5030 H   0  0  0  0  0  0  0  0  0  0  0  0
    4.5015    1.3154    0.5510 H   0  0  0  0  0  0  0  0  0  0  0  0
    2.9601    1.7349    0.0377 H   0  0  0  0  0  0  0  0  0  0  0  0
    1.4678   -2.1512    0.7666 H   0  0  0  0  0  0  0  0  0  0  0  0
    2.1138   -2.6266   -0.8452 H   0  0  0  0  0  0  0  0  0  0  0  0
  1  2  1  0
  2  3  1  0
  3  4  1  0
  4  5  2  3
  4  6  1  0
  6  7  1  0
  7  8  2  3
  8  9  1  0
  9 10  1  0
 10 11  1  0
 11 12  1  0
 12 13  1  0
 11 14  1  0
  7  2  1  0
 14  9  1  0
  1 15  1  0
  1 16  1  0
  1 17  1  0
  3 18  1  0
  5 19  1  0
  6 20  1  0
  9 21  1  6
 10 22  1  0
 10 23  1  0
 11 24  1  6
 12 25  1  0
 12 26  1  0
 13 27  1  0
 13 28  1  0
 14 29  1  0
 14 30  1  0
M  END
$$$$

     RDKit          3D

 30 31  0  0  0  0  0  0  0  0999 V2000
   -2.1431   -1.5502    0.6286 C   0  0  0  0  0  0  0  0  0  0  0  0
   -2.4730   -0.2281    0.1348 N   0  0  0  0  0  0  0  0  0  0  0  0
   -3.7312    0.1114   -0.2061 N   0  0  0  0  0  0  0  0  0  0  0  0
   -3.7228    1.3855   -0.6235 C   0  0  0  0  0  0  0  0  0  0  0  0
   -4.7446    2.0615   -1.0320 N   0  0  0  0  0  0  0  0  0  0  0  0
   -2.4577    1.8165   -0.5347 N   0  0  0  0  0  0  0  0  0  0  0  0
   -1.6597    0.8113   -0.0586 C   0  0  0  0  0  0  0  0  0  0  0  0
   -0.4241    0.9642    0.1199 N   0  0  0  0  0  0  0  0  0  0  0  0
    0.4748   -0.0004    0.6064 C   0  0  1  0  0  0  0  0  0  0  0  0
    1.2766   -0.7761   -0.4178 C   0  0  0  0  0  0  0  0  0  0  0  0
    2.4210   -0.7521    0.5979 C   0  0  1  0  0  0  0  0  0  0  0  0
    3.7907   -0.6794   -0.0323 C   0  0  0  0  0  0  0  0  0  0  0  0
    3.9659    0.4949   -0.8359 N   0  0  0  0  0  0  0  0  0  0  0  0
    1.8499    0.5826    1.0310 C   0  0  0  0  0  0  0  0  0  0  0  0
   -3.0315   -2.2219    0.4172 H   0  0  0  0  0  0  0  0  0  0  0  0
   -1.2885   -2.0195    0.1087 H   0  0  0  0  0  0  0  0  0  0  0  0
   -2.0504   -1.5819    1.7418 H   0  0  0  0  0  0  0  0  0  0  0  0
   -4.5846   -0.4803   -0.1669 H   0  0  0  0  0  0  0  0  0  0  0  0
   -5.6856    1.6451   -1.0666 H   0  0  0  0  0  0  0  0  0  0  0  0
   -2.1535    2.7863   -0.7982 H   0  0  0  0  0  0  0  0  0  0  0  0
    0.1073   -0.6624    1.4457 H   0  0  0  0  0  0  0  0  0  0  0  0
    1.5437   -0.0961   -1.2563 H   0  0  0  0  0  0  0  0  0  0  0  0
    0.9303   -1.7685   -0.6885 H   0  0  0  0  0  0  0  0  0  0  0  0
    2.2980   -1.5045    1.3824 H   0  0  0  0  0  0  0  0  0  0  0  0
    3.9765   -1.6263   -0.5676 H   0  0  0  0  0  0  0  0  0  0  0  0
    4.5209   -0.6362    0.8015 H   0  0  0  0  0  0  0  0  0  0  0  0
    4.9055    0.4166   -1.2975 H   0  0  0  0  0  0  0  0  0  0  0  0
    4.0766    1.3130   -0.1640 H   0  0  0  0  0  0  0  0  0  0  0  0
    1.9177    0.8175    2.0915 H   0  0  0  0  0  0  0  0  0  0  0  0
    2.0949    1.3774    0.3159 H   0  0  0  0  0  0  0  0  0  0  0  0
  1  2  1  0
  2  3  1  0
  3  4  1  0
  4  5  2  3
  4  6  1  0
  6  7  1  0
  7  8  2  3
  8  9  1  0
  9 10  1  0
 10 11  1  0
 11 12  1  0
 12 13  1  0
 11 14  1  0
  7  2  1  0
 14  9  1  0
  1 15  1  0
  1 16  1  0
  1 17  1  0
  3 18  1  0
  5 19  1  0
  6 20  1  0
  9 21  1  1
 10 22  1  0
 10 23  1  0
 11 24  1  1
 12 25  1  0
 12 26  1  0
 13 27  1  0
 13 28  1  0
 14 29  1  0
 14 30  1  0
M  END
$$$$

     RDKit          3D

 30 31  0  0  0  0  0  0  0  0999 V2000
   -3.1878   -1.1202   -1.7795 C   0  0  0  0  0  0  0  0  0  0  0  0
   -2.8831   -0.3355   -0.6018 N   0  0  0  0  0  0  0  0  0  0  0  0
   -3.7388    0.4572    0.0377 N   0  0  0  0  0  0  0  0  0  0  0  0
   -3.1176    1.0281    1.0837 C   0  0  0  0  0  0  0  0  0  0  0  0
   -3.6072    1.8556    1.9422 N   0  0  0  0  0  0  0  0  0  0  0  0
   -1.8606    0.5627    1.0651 N   0  0  0  0  0  0  0  0  0  0  0  0
   -1.6922   -0.2871    0.0253 C   0  0  0  0  0  0  0  0  0  0  0  0
   -0.6337   -0.9358   -0.3287 N   0  0  0  0  0  0  0  0  0  0  0  0
    0.5534   -0.7517    0.4754 C   0  0  1  0  0  0  0  0  0  0  0  0
    1.7835   -1.4574   -0.0442 C   0  0  0  0  0  0  0  0  0  0  0  0
    2.5732   -0.2241    0.3699 C   0  0  1  0  0  0  0  0  0  0  0  0
    3.6740    0.1456   -0.5950 C   0  0  0  0  0  0  0  0  0  0  0  0
    4.3251    1.3324   -0.0574 N   0  0  0  0  0  0  0  0  0  0  0  0
    1.2924    0.5644    0.1938 C   0  0  0  0  0  0  0  0  0  0  0  0
   -2.6680   -2.1093   -1.6719 H   0  0  0  0  0  0  0  0  0  0  0  0
   -2.7529   -0.5865   -2.6482 H   0  0  0  0  0  0  0  0  0  0  0  0
   -4.2821   -1.2883   -1.8814 H   0  0  0  0  0  0  0  0  0  0  0  0
   -4.7331    0.6242   -0.2125 H   0  0  0  0  0  0  0  0  0  0  0  0
   -4.5961    2.1837    1.9066 H   0  0  0  0  0  0  0  0  0  0  0  0
   -1.0954    0.7953    1.7334 H   0  0  0  0  0  0  0  0  0  0  0  0
    0.4186   -0.9414    1.5608 H   0  0  0  0  0  0  0  0  0  0  0  0
    2.0748   -2.3665    0.5087 H   0  0  0  0  0  0  0  0  0  0  0  0
    1.7919   -1.5568   -1.1363 H   0  0  0  0  0  0  0  0  0  0  0  0
    2.8655   -0.1991    1.4369 H   0  0  0  0  0  0  0  0  0  0  0  0
    3.3166    0.3580   -1.6002 H   0  0  0  0  0  0  0  0  0  0  0  0
    4.4457   -0.6411   -0.6699 H   0  0  0  0  0  0  0  0  0  0  0  0
    4.1618    1.3989    0.9716 H   0  0  0  0  0  0  0  0  0  0  0  0
    5.3720    1.2751   -0.1753 H   0  0  0  0  0  0  0  0  0  0  0  0
    1.1070    1.3396    0.9509 H   0  0  0  0  0  0  0  0  0  0  0  0
    1.0931    0.8799   -0.8597 H   0  0  0  0  0  0  0  0  0  0  0  0
  1  2  1  0
  2  3  1  0
  3  4  1  0
  4  5  2  3
  4  6  1  0
  6  7  1  0
  7  8  2  3
  8  9  1  0
  9 10  1  0
 10 11  1  0
 11 12  1  0
 12 13  1  0
 11 14  1  0
  7  2  1  0
 14  9  1  0
  1 15  1  0
  1 16  1  0
  1 17  1  0
  3 18  1  0
  5 19  1  0
  6 20  1  0
  9 21  1  1
 10 22  1  0
 10 23  1  0
 11 24  1  1
 12 25  1  0
 12 26  1  0
 13 27  1  0
 13 28  1  0
 14 29  1  0
 14 30  1  0
M  END
$$$$

     RDKit          3D

 30 31  0  0  0  0  0  0  0  0999 V2000
   -2.1364   -2.2400    1.2988 C   0  0  0  0  0  0  0  0  0  0  0  0
   -2.3031   -0.8942    0.7577 N   0  0  0  0  0  0  0  0  0  0  0  0
   -3.3146   -0.0703    0.9986 N   0  0  0  0  0  0  0  0  0  0  0  0
   -3.0692    1.0546    0.3043 C   0  0  0  0  0  0  0  0  0  0  0  0
   -3.8399    2.1150    0.2801 N   0  0  0  0  0  0  0  0  0  0  0  0
   -1.9067    0.9134   -0.3592 N   0  0  0  0  0  0  0  0  0  0  0  0
   -1.4162   -0.3085   -0.0812 C   0  0  0  0  0  0  0  0  0  0  0  0
   -0.3214   -0.8088   -0.5298 N   0  0  0  0  0  0  0  0  0  0  0  0
    0.5122   -0.0506   -1.4181 C   0  0  1  0  0  0  0  0  0  0  0  0
    1.0708    1.1706   -0.7517 C   0  0  0  0  0  0  0  0  0  0  0  0
    2.4870    0.6787   -0.9239 C   0  0  1  0  0  0  0  0  0  0  0  0
    3.1985    0.4345    0.4065 C   0  0  0  0  0  0  0  0  0  0  0  0
    2.4835   -0.5578    1.1660 N   0  0  0  0  0  0  0  0  0  0  0  0
    1.9257   -0.5709   -1.5573 C   0  0  0  0  0  0  0  0  0  0  0  0
   -2.9925   -2.4765    1.9500 H   0  0  0  0  0  0  0  0  0  0  0  0
   -1.2148   -2.2437    1.9212 H   0  0  0  0  0  0  0  0  0  0  0  0
   -2.0521   -2.9223    0.4207 H   0  0  0  0  0  0  0  0  0  0  0  0
   -4.1537   -0.2349    1.6054 H   0  0  0  0  0  0  0  0  0  0  0  0
   -3.5728    2.9476   -0.2876 H   0  0  0  0  0  0  0  0  0  0  0  0
   -1.5105    1.6684   -0.9708 H   0  0  0  0  0  0  0  0  0  0  0  0
    0.0784    0.1131   -2.4296 H   0  0  0  0  0  0  0  0  0  0  0  0
    0.8324    1.3108    0.3035 H   0  0  0  0  0  0  0  0  0  0  0  0
    0.8257    2.0869   -1.3277 H   0  0  0  0  0  0  0  0  0  0  0  0
    3.0447    1.3492   -1.5939 H   0  0  0  0  0  0  0  0  0  0  0  0
    4.2223    0.1124    0.2279 H   0  0  0  0  0  0  0  0  0  0  0  0
    3.1914    1.3887    0.9719 H   0  0  0  0  0  0  0  0  0  0  0  0
    2.9824   -1.4680    1.0508 H   0  0  0  0  0  0  0  0  0  0  0  0
    2.5300   -0.3184    2.1816 H   0  0  0  0  0  0  0  0  0  0  0  0
    2.1278   -1.5147   -1.0144 H   0  0  0  0  0  0  0  0  0  0  0  0
    2.2911   -0.6644   -2.5997 H   0  0  0  0  0  0  0  0  0  0  0  0
  1  2  1  0
  2  3  1  0
  3  4  1  0
  4  5  2  3
  4  6  1  0
  6  7  1  0
  7  8  2  3
  8  9  1  0
  9 10  1  0
 10 11  1  0
 11 12  1  0
 12 13  1  0
 11 14  1  0
  7  2  1  0
 14  9  1  0
  1 15  1  0
  1 16  1  0
  1 17  1  0
  3 18  1  0
  5 19  1  0
  6 20  1  0
  9 21  1  6
 10 22  1  0
 10 23  1  0
 11 24  1  6
 12 25  1  0
 12 26  1  0
 13 27  1  0
 13 28  1  0
 14 29  1  0
 14 30  1  0
M  END
$$$$

     RDKit          3D

 30 31  0  0  0  0  0  0  0  0999 V2000
    2.3328   -1.1450    1.0724 C   0  0  0  0  0  0  0  0  0  0  0  0
    2.5044    0.1670    0.4833 N   0  0  0  0  0  0  0  0  0  0  0  0
    3.5835    0.9457    0.6010 N   0  0  0  0  0  0  0  0  0  0  0  0
    3.4167    2.0833   -0.0603 C   0  0  0  0  0  0  0  0  0  0  0  0
    4.2787    3.0598   -0.1475 N   0  0  0  0  0  0  0  0  0  0  0  0
    2.2089    2.0411   -0.6161 N   0  0  0  0  0  0  0  0  0  0  0  0
    1.6439    0.8399   -0.2721 C   0  0  0  0  0  0  0  0  0  0  0  0
    0.4887    0.5308   -0.6667 N   0  0  0  0  0  0  0  0  0  0  0  0
   -0.3099   -0.6131   -0.4644 C   0  0  1  0  0  0  0  0  0  0  0  0
   -1.3153   -0.5269    0.6950 C   0  0  0  0  0  0  0  0  0  0  0  0
   -2.2108   -1.3950   -0.1990 C   0  0  1  0  0  0  0  0  0  0  0  0
   -3.6815   -1.1209   -0.0296 C   0  0  0  0  0  0  0  0  0  0  0  0
   -3.9545    0.2546   -0.3561 N   0  0  0  0  0  0  0  0  0  0  0  0
   -1.5682   -0.6662   -1.3603 C   0  0  0  0  0  0  0  0  0  0  0  0
    3.1682   -1.3175    1.7932 H   0  0  0  0  0  0  0  0  0  0  0  0
    2.4248   -1.9069    0.2944 H   0  0  0  0  0  0  0  0  0  0  0  0
    1.3585   -1.1802    1.5609 H   0  0  0  0  0  0  0  0  0  0  0  0
    4.4429    0.6795    1.1479 H   0  0  0  0  0  0  0  0  0  0  0  0
    4.0231    3.9027   -0.7007 H   0  0  0  0  0  0  0  0  0  0  0  0
    1.7496    2.7563   -1.2013 H   0  0  0  0  0  0  0  0  0  0  0  0
    0.2066   -1.5885   -0.4838 H   0  0  0  0  0  0  0  0  0  0  0  0
   -1.6739    0.5030    0.8048 H   0  0  0  0  0  0  0  0  0  0  0  0
   -1.0333   -1.0586    1.6007 H   0  0  0  0  0  0  0  0  0  0  0  0
   -1.9174   -2.4423   -0.1712 H   0  0  0  0  0  0  0  0  0  0  0  0
   -3.9572   -1.2882    1.0219 H   0  0  0  0  0  0  0  0  0  0  0  0
   -4.2239   -1.8339   -0.6687 H   0  0  0  0  0  0  0  0  0  0  0  0
   -4.9883    0.3567   -0.4710 H   0  0  0  0  0  0  0  0  0  0  0  0
   -3.6423    0.8724    0.4127 H   0  0  0  0  0  0  0  0  0  0  0  0
   -1.4210   -1.2681   -2.2733 H   0  0  0  0  0  0  0  0  0  0  0  0
   -1.9336    0.3584   -1.4832 H   0  0  0  0  0  0  0  0  0  0  0  0
  1  2  1  0
  2  3  1  0
  3  4  1  0
  4  5  2  3
  4  6  1  0
  6  7  1  0
  7  8  2  3
  8  9  1  0
  9 10  1  0
 10 11  1  0
 11 12  1  0
 12 13  1  0
 11 14  1  0
  7  2  1  0
 14  9  1  0
  1 15  1  0
  1 16  1  0
  1 17  1  0
  3 18  1  0
  5 19  1  0
  6 20  1  0
  9 21  1  1
 10 22  1  0
 10 23  1  0
 11 24  1  6
 12 25  1  0
 12 26  1  0
 13 27  1  0
 13 28  1  0
 14 29  1  0
 14 30  1  0
M  END
$$$$

     RDKit          3D

 30 31  0  0  0  0  0  0  0  0999 V2000
   -3.2861   -1.3411   -0.8864 C   0  0  0  0  0  0  0  0  0  0  0  0
   -2.7795   -0.1900   -0.1774 N   0  0  0  0  0  0  0  0  0  0  0  0
   -3.5136    0.9182   -0.0191 N   0  0  0  0  0  0  0  0  0  0  0  0
   -2.7789    1.8148    0.6790 C   0  0  0  0  0  0  0  0  0  0  0  0
   -3.1098    3.0021    1.0441 N   0  0  0  0  0  0  0  0  0  0  0  0
   -1.5867    1.2096    0.9322 N   0  0  0  0  0  0  0  0  0  0  0  0
   -1.5886   -0.0187    0.4068 C   0  0  0  0  0  0  0  0  0  0  0  0
   -0.6444   -0.8652    0.4504 N   0  0  0  0  0  0  0  0  0  0  0  0
    0.6222   -0.7281    1.0525 C   0  0  1  0  0  0  0  0  0  0  0  0
    1.6616   -1.5845    0.3142 C   0  0  0  0  0  0  0  0  0  0  0  0
    2.6541   -0.5004    0.6836 C   0  0  1  0  0  0  0  0  0  0  0  0
    3.7167   -0.2217   -0.3276 C   0  0  0  0  0  0  0  0  0  0  0  0
    3.2328    0.2018   -1.5998 N   0  0  0  0  0  0  0  0  0  0  0  0
    1.4616    0.4640    0.6408 C   0  0  0  0  0  0  0  0  0  0  0  0
   -3.6847   -1.0845   -1.8913 H   0  0  0  0  0  0  0  0  0  0  0  0
   -4.1690   -1.7092   -0.2937 H   0  0  0  0  0  0  0  0  0  0  0  0
   -2.5730   -2.1593   -0.9544 H   0  0  0  0  0  0  0  0  0  0  0  0
   -4.4923    1.0993   -0.3618 H   0  0  0  0  0  0  0  0  0  0  0  0
   -2.4353    3.5834    1.5818 H   0  0  0  0  0  0  0  0  0  0  0  0
   -0.8041    1.6420    1.4526 H   0  0  0  0  0  0  0  0  0  0  0  0
    0.7232   -0.9238    2.1345 H   0  0  0  0  0  0  0  0  0  0  0  0
    1.4143   -1.5891   -0.7565 H   0  0  0  0  0  0  0  0  0  0  0  0
    1.8428   -2.5615    0.7933 H   0  0  0  0  0  0  0  0  0  0  0  0
    3.0799   -0.6186    1.6900 H   0  0  0  0  0  0  0  0  0  0  0  0
    4.2764   -1.1880   -0.4909 H   0  0  0  0  0  0  0  0  0  0  0  0
    4.4336    0.4824    0.0909 H   0  0  0  0  0  0  0  0  0  0  0  0
    2.9613    1.2090   -1.6105 H   0  0  0  0  0  0  0  0  0  0  0  0
    2.5369   -0.4285   -2.0066 H   0  0  0  0  0  0  0  0  0  0  0  0
    1.2689    0.8591   -0.3569 H   0  0  0  0  0  0  0  0  0  0  0  0
    1.5597    1.2266    1.4414 H   0  0  0  0  0  0  0  0  0  0  0  0
  1  2  1  0
  2  3  1  0
  3  4  1  0
  4  5  2  3
  4  6  1  0
  6  7  1  0
  7  8  2  3
  8  9  1  0
  9 10  1  0
 10 11  1  0
 11 12  1  0
 12 13  1  0
 11 14  1  0
  7  2  1  0
 14  9  1  0
  1 15  1  0
  1 16  1  0
  1 17  1  0
  3 18  1  0
  5 19  1  0
  6 20  1  0
  9 21  1  1
 10 22  1  0
 10 23  1  0
 11 24  1  1
 12 25  1  0
 12 26  1  0
 13 27  1  0
 13 28  1  0
 14 29  1  0
 14 30  1  0
M  END
$$$$

     RDKit          3D

 30 31  0  0  0  0  0  0  0  0999 V2000
    2.1708   -1.3948   -0.9273 C   0  0  0  0  0  0  0  0  0  0  0  0
    2.4961   -0.1467   -0.2185 N   0  0  0  0  0  0  0  0  0  0  0  0
    3.6985    0.3834   -0.1898 N   0  0  0  0  0  0  0  0  0  0  0  0
    3.6644    1.5139    0.5348 C   0  0  0  0  0  0  0  0  0  0  0  0
    4.6979    2.2719    0.7509 N   0  0  0  0  0  0  0  0  0  0  0  0
    2.4115    1.6675    0.9521 N   0  0  0  0  0  0  0  0  0  0  0  0
    1.6572    0.6236    0.4837 C   0  0  0  0  0  0  0  0  0  0  0  0
    0.4252    0.4927    0.7179 N   0  0  0  0  0  0  0  0  0  0  0  0
   -0.4693   -0.5151    0.3119 C   0  0  1  0  0  0  0  0  0  0  0  0
   -1.7935   -0.5530    1.1058 C   0  0  0  0  0  0  0  0  0  0  0  0
   -2.4458   -0.9325   -0.2072 C   0  0  1  0  0  0  0  0  0  0  0  0
   -3.8337   -0.4083   -0.4059 C   0  0  0  0  0  0  0  0  0  0  0  0
   -3.9332    1.0137   -0.3792 N   0  0  0  0  0  0  0  0  0  0  0  0
   -1.3419   -0.1859   -0.8926 C   0  0  0  0  0  0  0  0  0  0  0  0
    2.1088   -2.2338   -0.2194 H   0  0  0  0  0  0  0  0  0  0  0  0
    3.0453   -1.6648   -1.5945 H   0  0  0  0  0  0  0  0  0  0  0  0
    1.3310   -1.2796   -1.6185 H   0  0  0  0  0  0  0  0  0  0  0  0
    4.5486   -0.0391   -0.6743 H   0  0  0  0  0  0  0  0  0  0  0  0
    5.6208    2.0145    0.3522 H   0  0  0  0  0  0  0  0  0  0  0  0
    2.0612    2.4642    1.5461 H   0  0  0  0  0  0  0  0  0  0  0  0
   -0.1250   -1.5635    0.2382 H   0  0  0  0  0  0  0  0  0  0  0  0
   -2.0228    0.4487    1.4804 H   0  0  0  0  0  0  0  0  0  0  0  0
   -1.8092   -1.3754    1.8672 H   0  0  0  0  0  0  0  0  0  0  0  0
   -2.3430   -2.0200   -0.3902 H   0  0  0  0  0  0  0  0  0  0  0  0
   -4.1869   -0.7664   -1.3941 H   0  0  0  0  0  0  0  0  0  0  0  0
   -4.5359   -0.8149    0.3443 H   0  0  0  0  0  0  0  0  0  0  0  0
   -3.7579    1.4721   -1.3071 H   0  0  0  0  0  0  0  0  0  0  0  0
   -4.9129    1.2712   -0.1233 H   0  0  0  0  0  0  0  0  0  0  0  0
   -1.4635    0.9141   -0.9491 H   0  0  0  0  0  0  0  0  0  0  0  0
   -0.9627   -0.6577   -1.8178 H   0  0  0  0  0  0  0  0  0  0  0  0
  1  2  1  0
  2  3  1  0
  3  4  1  0
  4  5  2  3
  4  6  1  0
  6  7  1  0
  7  8  2  3
  8  9  1  0
  9 10  1  0
 10 11  1  0
 11 12  1  0
 12 13  1  0
 11 14  1  0
  7  2  1  0
 14  9  1  0
  1 15  1  0
  1 16  1  0
  1 17  1  0
  3 18  1  0
  5 19  1  0
  6 20  1  0
  9 21  1  6
 10 22  1  0
 10 23  1  0
 11 24  1  6
 12 25  1  0
 12 26  1  0
 13 27  1  0
 13 28  1  0
 14 29  1  0
 14 30  1  0
M  END
$$$$
