
     RDKit          3D

 23 23  0  0  0  0  0  0  0  0999 V2000
    2.9889    0.5640    0.3720 N   0  0  0  0  0  0  0  0  0  0  0  0
    2.5586   -0.3816   -0.6017 C   0  0  0  0  0  0  0  0  0  0  0  0
    1.1008   -0.6141   -0.7250 C   0  0  0  0  0  0  0  0  0  0  0  0
    0.6997   -1.5369   -1.6486 F   0  0  0  0  0  0  0  0  0  0  0  0
    0.4646   -0.9672    0.6382 C   0  0  0  0  0  0  0  0  0  0  0  0
   -0.7760   -0.5122   -0.0389 N   0  0  0  0  0  0  0  0  0  0  0  0
   -1.7379    0.0356    0.8769 C   0  0  0  0  0  0  0  0  0  0  0  0
   -3.0539    0.1486    0.1133 C   0  0  0  0  0  0  0  0  0  0  0  0
   -2.9126    0.9659   -0.9762 O   0  0  0  0  0  0  0  0  0  0  0  0
    0.1414    0.5377   -0.5842 C   0  0  0  0  0  0  0  0  0  0  0  0
    3.9163    0.2005    0.7522 H   0  0  0  0  0  0  0  0  0  0  0  0
    3.2307    1.4765   -0.0334 H   0  0  0  0  0  0  0  0  0  0  0  0
    3.0052   -1.4034   -0.3439 H   0  0  0  0  0  0  0  0  0  0  0  0
    2.9742   -0.1115   -1.5938 H   0  0  0  0  0  0  0  0  0  0  0  0
    0.4743   -2.0187    0.8926 H   0  0  0  0  0  0  0  0  0  0  0  0
    0.7922   -0.2466    1.4115 H   0  0  0  0  0  0  0  0  0  0  0  0
   -1.4201    1.0126    1.2819 H   0  0  0  0  0  0  0  0  0  0  0  0
   -1.8941   -0.6557    1.7135 H   0  0  0  0  0  0  0  0  0  0  0  0
   -3.8816    0.4486    0.8086 H   0  0  0  0  0  0  0  0  0  0  0  0
   -3.3132   -0.8924   -0.2320 H   0  0  0  0  0  0  0  0  0  0  0  0
   -3.5720    1.7113   -0.8408 H   0  0  0  0  0  0  0  0  0  0  0  0
   -0.2275    1.0231   -1.4900 H   0  0  0  0  0  0  0  0  0  0  0  0
    0.4420    1.2159    0.2480 H   0  0  0  0  0  0  0  0  0  0  0  0
  1  2  1  0
  2  3  1  0
  3  4  1  0
  3  5  1  0
  5  6  1  0
  6  7  1  0
  7  8  1  0
  8  9  1  0
  6 10  1  0
 10  3  1  0
  1 11  1  0
  1 12  1  0
  2 13  1  0
  2 14  1  0
  5 15  1  0
  5 16  1  0
  7 17  1  0
  7 18  1  0
  8 19  1  0
  8 20  1  0
  9 21  1  0
 10 22  1  0
 10 23  1  0
M  END
$$$$

     RDKit          3D

 23 23  0  0  0  0  0  0  0  0999 V2000
   -2.8544   -0.5691   -0.1440 N   0  0  0  0  0  0  0  0  0  0  0  0
   -2.5532    0.8336    0.1450 C   0  0  0  0  0  0  0  0  0  0  0  0
   -1.0816    1.0156    0.0569 C   0  0  0  0  0  0  0  0  0  0  0  0
   -0.5953    2.2927    0.2813 F   0  0  0  0  0  0  0  0  0  0  0  0
   -0.4010    0.2848   -1.0969 C   0  0  0  0  0  0  0  0  0  0  0  0
    0.7731    0.2697   -0.2468 N   0  0  0  0  0  0  0  0  0  0  0  0
    1.6554   -0.8680   -0.4177 C   0  0  0  0  0  0  0  0  0  0  0  0
    2.9098   -0.5359    0.4123 C   0  0  0  0  0  0  0  0  0  0  0  0
    3.4103    0.6534   -0.1794 O   0  0  0  0  0  0  0  0  0  0  0  0
   -0.2225    0.0126    0.8411 C   0  0  0  0  0  0  0  0  0  0  0  0
   -2.9897   -0.7263   -1.1738 H   0  0  0  0  0  0  0  0  0  0  0  0
   -3.6278   -0.9142    0.4293 H   0  0  0  0  0  0  0  0  0  0  0  0
   -2.9184    1.1135    1.1582 H   0  0  0  0  0  0  0  0  0  0  0  0
   -3.0388    1.4923   -0.6172 H   0  0  0  0  0  0  0  0  0  0  0  0
   -0.3409    0.9118   -2.0120 H   0  0  0  0  0  0  0  0  0  0  0  0
   -0.8812   -0.7066   -1.2247 H   0  0  0  0  0  0  0  0  0  0  0  0
    1.2215   -1.7884    0.0839 H   0  0  0  0  0  0  0  0  0  0  0  0
    1.9779   -1.0342   -1.4342 H   0  0  0  0  0  0  0  0  0  0  0  0
    3.6384   -1.3417    0.4267 H   0  0  0  0  0  0  0  0  0  0  0  0
    2.5555   -0.2058    1.4151 H   0  0  0  0  0  0  0  0  0  0  0  0
    3.7822    0.4468   -1.0771 H   0  0  0  0  0  0  0  0  0  0  0  0
   -0.6098   -1.0018    0.7512 H   0  0  0  0  0  0  0  0  0  0  0  0
    0.1905    0.3654    1.7818 H   0  0  0  0  0  0  0  0  0  0  0  0
  1  2  1  0
  2  3  1  0
  3  4  1  0
  3  5  1  0
  5  6  1  0
  6  7  1  0
  7  8  1  0
  8  9  1  0
  6 10  1  0
 10  3  1  0
  1 11  1  0
  1 12  1  0
  2 13  1  0
  2 14  1  0
  5 15  1  0
  5 16  1  0
  7 17  1  0
  7 18  1  0
  8 19  1  0
  8 20  1  0
  9 21  1  0
 10 22  1  0
 10 23  1  0
M  END
$$$$

     RDKit          3D

 23 23  0  0  0  0  0  0  0  0999 V2000
    2.5537    0.1765    1.2542 N   0  0  0  0  0  0  0  0  0  0  0  0
    2.6313    0.2233   -0.1788 C   0  0  0  0  0  0  0  0  0  0  0  0
    1.3002   -0.0318   -0.8452 C   0  0  0  0  0  0  0  0  0  0  0  0
    1.3866    0.0151   -2.2049 F   0  0  0  0  0  0  0  0  0  0  0  0
    0.5354   -1.2163   -0.3383 C   0  0  0  0  0  0  0  0  0  0  0  0
   -0.4330   -0.3438    0.2858 N   0  0  0  0  0  0  0  0  0  0  0  0
   -1.8073   -0.5628   -0.1166 C   0  0  0  0  0  0  0  0  0  0  0  0
   -2.6432    0.4524    0.6538 C   0  0  0  0  0  0  0  0  0  0  0  0
   -3.9929    0.3501    0.3583 O   0  0  0  0  0  0  0  0  0  0  0  0
    0.1915    0.8184   -0.2930 C   0  0  0  0  0  0  0  0  0  0  0  0
    2.2233   -0.7279    1.6325 H   0  0  0  0  0  0  0  0  0  0  0  0
    3.4864    0.4597    1.6267 H   0  0  0  0  0  0  0  0  0  0  0  0
    3.4093   -0.4442   -0.5580 H   0  0  0  0  0  0  0  0  0  0  0  0
    2.9315    1.2596   -0.4580 H   0  0  0  0  0  0  0  0  0  0  0  0
    1.0821   -1.8556    0.3708 H   0  0  0  0  0  0  0  0  0  0  0  0
    0.1233   -1.8295   -1.1734 H   0  0  0  0  0  0  0  0  0  0  0  0
   -1.9837   -0.3812   -1.1785 H   0  0  0  0  0  0  0  0  0  0  0  0
   -2.1347   -1.5703    0.1292 H   0  0  0  0  0  0  0  0  0  0  0  0
   -2.3311    1.4840    0.4078 H   0  0  0  0  0  0  0  0  0  0  0  0
   -2.5006    0.2541    1.7365 H   0  0  0  0  0  0  0  0  0  0  0  0
   -4.1979    0.7446   -0.5372 H   0  0  0  0  0  0  0  0  0  0  0  0
   -0.3872    1.3318   -1.0823 H   0  0  0  0  0  0  0  0  0  0  0  0
    0.5572    1.4870    0.5087 H   0  0  0  0  0  0  0  0  0  0  0  0
  1  2  1  0
  2  3  1  0
  3  4  1  0
  3  5  1  0
  5  6  1  0
  6  7  1  0
  7  8  1  0
  8  9  1  0
  6 10  1  0
 10  3  1  0
  1 11  1  0
  1 12  1  0
  2 13  1  0
  2 14  1  0
  5 15  1  0
  5 16  1  0
  7 17  1  0
  7 18  1  0
  8 19  1  0
  8 20  1  0
  9 21  1  0
 10 22  1  0
 10 23  1  0
M  END
$$$$

     RDKit          3D

 23 23  0  0  0  0  0  0  0  0999 V2000
    3.4012    0.3607    0.6713 N   0  0  0  0  0  0  0  0  0  0  0  0
    2.5280   -0.2283   -0.3244 C   0  0  0  0  0  0  0  0  0  0  0  0
    1.3008   -0.8157    0.3083 C   0  0  0  0  0  0  0  0  0  0  0  0
    1.4917   -1.7993    1.2184 F   0  0  0  0  0  0  0  0  0  0  0  0
    0.4646    0.3076    0.9278 C   0  0  0  0  0  0  0  0  0  0  0  0
   -0.6991   -0.4535    0.4798 N   0  0  0  0  0  0  0  0  0  0  0  0
   -1.7585    0.4411    0.1278 C   0  0  0  0  0  0  0  0  0  0  0  0
   -3.0000   -0.2406   -0.3454 C   0  0  0  0  0  0  0  0  0  0  0  0
   -3.9381    0.7684   -0.6496 O   0  0  0  0  0  0  0  0  0  0  0  0
    0.1048   -0.9830   -0.5676 C   0  0  0  0  0  0  0  0  0  0  0  0
    3.9145    1.1569    0.2328 H   0  0  0  0  0  0  0  0  0  0  0  0
    2.7802    0.7898    1.4025 H   0  0  0  0  0  0  0  0  0  0  0  0
    2.3081    0.5231   -1.0819 H   0  0  0  0  0  0  0  0  0  0  0  0
    3.0925   -1.0910   -0.7854 H   0  0  0  0  0  0  0  0  0  0  0  0
    0.5353    1.2399    0.3497 H   0  0  0  0  0  0  0  0  0  0  0  0
    0.6129    0.3625    2.0049 H   0  0  0  0  0  0  0  0  0  0  0  0
   -2.0238    1.0150    1.0574 H   0  0  0  0  0  0  0  0  0  0  0  0
   -1.4066    1.2159   -0.5984 H   0  0  0  0  0  0  0  0  0  0  0  0
   -2.8165   -0.8346   -1.2669 H   0  0  0  0  0  0  0  0  0  0  0  0
   -3.3668   -0.9006    0.4677 H   0  0  0  0  0  0  0  0  0  0  0  0
   -3.5266    1.6648   -0.6457 H   0  0  0  0  0  0  0  0  0  0  0  0
    0.1155   -0.4337   -1.5312 H   0  0  0  0  0  0  0  0  0  0  0  0
   -0.1141   -2.0655   -0.7765 H   0  0  0  0  0  0  0  0  0  0  0  0
  1  2  1  0
  2  3  1  0
  3  4  1  0
  3  5  1  0
  5  6  1  0
  6  7  1  0
  7  8  1  0
  8  9  1  0
  6 10  1  0
 10  3  1  0
  1 11  1  0
  1 12  1  0
  2 13  1  0
  2 14  1  0
  5 15  1  0
  5 16  1  0
  7 17  1  0
  7 18  1  0
  8 19  1  0
  8 20  1  0
  9 21  1  0
 10 22  1  0
 10 23  1  0
M  END
$$$$

     RDKit          3D

 23 23  0  0  0  0  0  0  0  0999 V2000
   -3.6008   -0.4908    0.0204 N   0  0  0  0  0  0  0  0  0  0  0  0
   -2.4854    0.3966   -0.1698 C   0  0  0  0  0  0  0  0  0  0  0  0
   -1.2598   -0.0624    0.5845 C   0  0  0  0  0  0  0  0  0  0  0  0
   -1.4323   -0.1513    1.9438 F   0  0  0  0  0  0  0  0  0  0  0  0
   -0.0130    0.7435    0.2833 C   0  0  0  0  0  0  0  0  0  0  0  0
    0.7178   -0.5296    0.3927 N   0  0  0  0  0  0  0  0  0  0  0  0
    1.8769   -0.5934   -0.4664 C   0  0  0  0  0  0  0  0  0  0  0  0
    2.8879    0.3896    0.1189 C   0  0  0  0  0  0  0  0  0  0  0  0
    4.0515    0.4471   -0.6218 O   0  0  0  0  0  0  0  0  0  0  0  0
   -0.4798   -1.1774   -0.0600 C   0  0  0  0  0  0  0  0  0  0  0  0
   -4.5233   -0.0141    0.0888 H   0  0  0  0  0  0  0  0  0  0  0  0
   -3.6467   -1.1274   -0.8020 H   0  0  0  0  0  0  0  0  0  0  0  0
   -2.7562    1.3875    0.2276 H   0  0  0  0  0  0  0  0  0  0  0  0
   -2.2529    0.5330   -1.2537 H   0  0  0  0  0  0  0  0  0  0  0  0
    0.0480    1.0837   -0.7769 H   0  0  0  0  0  0  0  0  0  0  0  0
    0.2811    1.4807    1.0416 H   0  0  0  0  0  0  0  0  0  0  0  0
    2.2955   -1.6066   -0.3847 H   0  0  0  0  0  0  0  0  0  0  0  0
    1.6726   -0.2699   -1.5030 H   0  0  0  0  0  0  0  0  0  0  0  0
    3.1534    0.0714    1.1750 H   0  0  0  0  0  0  0  0  0  0  0  0
    2.4800    1.4114    0.2258 H   0  0  0  0  0  0  0  0  0  0  0  0
    4.3458    1.3939   -0.8263 H   0  0  0  0  0  0  0  0  0  0  0  0
   -0.6600   -1.1881   -1.1535 H   0  0  0  0  0  0  0  0  0  0  0  0
   -0.7005   -2.1274    0.4737 H   0  0  0  0  0  0  0  0  0  0  0  0
  1  2  1  0
  2  3  1  0
  3  4  1  0
  3  5  1  0
  5  6  1  0
  6  7  1  0
  7  8  1  0
  8  9  1  0
  6 10  1  0
 10  3  1  0
  1 11  1  0
  1 12  1  0
  2 13  1  0
  2 14  1  0
  5 15  1  0
  5 16  1  0
  7 17  1  0
  7 18  1  0
  8 19  1  0
  8 20  1  0
  9 21  1  0
 10 22  1  0
 10 23  1  0
M  END
$$$$

     RDKit          3D

 23 23  0  0  0  0  0  0  0  0999 V2000
    3.4383    0.1960   -0.5566 N   0  0  0  0  0  0  0  0  0  0  0  0
    2.5056   -0.0868    0.5549 C   0  0  0  0  0  0  0  0  0  0  0  0
    1.1845    0.4257    0.0947 C   0  0  0  0  0  0  0  0  0  0  0  0
    1.1494    1.7568   -0.1964 F   0  0  0  0  0  0  0  0  0  0  0  0
    0.4697   -0.4459   -0.9283 C   0  0  0  0  0  0  0  0  0  0  0  0
   -0.7538    0.1728   -0.3767 N   0  0  0  0  0  0  0  0  0  0  0  0
   -1.9272   -0.6888   -0.4117 C   0  0  0  0  0  0  0  0  0  0  0  0
   -3.1064    0.1730    0.0140 C   0  0  0  0  0  0  0  0  0  0  0  0
   -2.8299    0.6465    1.2893 O   0  0  0  0  0  0  0  0  0  0  0  0
   -0.0360    0.0392    0.9279 C   0  0  0  0  0  0  0  0  0  0  0  0
    4.2162   -0.4811   -0.4518 H   0  0  0  0  0  0  0  0  0  0  0  0
    3.8111    1.1708   -0.4714 H   0  0  0  0  0  0  0  0  0  0  0  0
    2.4954   -1.1632    0.7735 H   0  0  0  0  0  0  0  0  0  0  0  0
    2.8630    0.5238    1.4123 H   0  0  0  0  0  0  0  0  0  0  0  0
    0.5902   -0.1769   -1.9679 H   0  0  0  0  0  0  0  0  0  0  0  0
    0.4447   -1.5221   -0.6482 H   0  0  0  0  0  0  0  0  0  0  0  0
   -2.1607   -1.1298   -1.3699 H   0  0  0  0  0  0  0  0  0  0  0  0
   -1.8222   -1.5116    0.3551 H   0  0  0  0  0  0  0  0  0  0  0  0
   -4.0550   -0.4151   -0.0313 H   0  0  0  0  0  0  0  0  0  0  0  0
   -3.1470    1.0524   -0.6830 H   0  0  0  0  0  0  0  0  0  0  0  0
   -2.9816    1.6275    1.3663 H   0  0  0  0  0  0  0  0  0  0  0  0
   -0.3552    0.8290    1.6227 H   0  0  0  0  0  0  0  0  0  0  0  0
    0.0069   -0.9921    1.2686 H   0  0  0  0  0  0  0  0  0  0  0  0
  1  2  1  0
  2  3  1  0
  3  4  1  0
  3  5  1  0
  5  6  1  0
  6  7  1  0
  7  8  1  0
  8  9  1  0
  6 10  1  0
 10  3  1  0
  1 11  1  0
  1 12  1  0
  2 13  1  0
  2 14  1  0
  5 15  1  0
  5 16  1  0
  7 17  1  0
  7 18  1  0
  8 19  1  0
  8 20  1  0
  9 21  1  0
 10 22  1  0
 10 23  1  0
M  END
$$$$

     RDKit          3D

 23 23  0  0  0  0  0  0  0  0999 V2000
    3.5240    0.1787   -0.4866 N   0  0  0  0  0  0  0  0  0  0  0  0
    2.4698   -0.6290    0.1348 C   0  0  0  0  0  0  0  0  0  0  0  0
    1.3737    0.3215    0.5443 C   0  0  0  0  0  0  0  0  0  0  0  0
    1.6995    1.2992    1.4296 F   0  0  0  0  0  0  0  0  0  0  0  0
    0.0937   -0.4139    0.9834 C   0  0  0  0  0  0  0  0  0  0  0  0
   -0.5165    0.0993   -0.1606 N   0  0  0  0  0  0  0  0  0  0  0  0
   -1.6370   -0.3619   -0.8065 C   0  0  0  0  0  0  0  0  0  0  0  0
   -2.8637   -0.0772    0.0832 C   0  0  0  0  0  0  0  0  0  0  0  0
   -4.0263   -0.5373   -0.5175 O   0  0  0  0  0  0  0  0  0  0  0  0
    0.5735    0.7848   -0.6872 C   0  0  0  0  0  0  0  0  0  0  0  0
    3.7023    0.9623    0.2068 H   0  0  0  0  0  0  0  0  0  0  0  0
    3.0623    0.6617   -1.3144 H   0  0  0  0  0  0  0  0  0  0  0  0
    2.0235   -1.3369   -0.5778 H   0  0  0  0  0  0  0  0  0  0  0  0
    2.8266   -1.1948    1.0066 H   0  0  0  0  0  0  0  0  0  0  0  0
    0.3072   -1.4997    1.0652 H   0  0  0  0  0  0  0  0  0  0  0  0
   -0.3048   -0.0023    1.9424 H   0  0  0  0  0  0  0  0  0  0  0  0
   -1.6547   -1.4533   -1.0798 H   0  0  0  0  0  0  0  0  0  0  0  0
   -1.8865    0.1786   -1.7638 H   0  0  0  0  0  0  0  0  0  0  0  0
   -2.6795   -0.4808    1.0953 H   0  0  0  0  0  0  0  0  0  0  0  0
   -2.8862    1.0461    0.1773 H   0  0  0  0  0  0  0  0  0  0  0  0
   -4.7567    0.0672   -0.2437 H   0  0  0  0  0  0  0  0  0  0  0  0
    1.0437    0.4697   -1.6373 H   0  0  0  0  0  0  0  0  0  0  0  0
    0.5123    1.9179   -0.6827 H   0  0  0  0  0  0  0  0  0  0  0  0
  1  2  1  0
  2  3  1  0
  3  4  1  0
  3  5  1  0
  5  6  1  0
  6  7  1  0
  7  8  1  0
  8  9  1  0
  6 10  1  0
 10  3  1  0
  1 11  1  0
  1 12  1  0
  2 13  1  0
  2 14  1  0
  5 15  1  0
  5 16  1  0
  7 17  1  0
  7 18  1  0
  8 19  1  0
  8 20  1  0
  9 21  1  0
 10 22  1  0
 10 23  1  0
M  END
$$$$

     RDKit          3D

 23 23  0  0  0  0  0  0  0  0999 V2000
   -3.0036   -0.5199   -0.4596 N   0  0  0  0  0  0  0  0  0  0  0  0
   -2.4683   -0.1378    0.8180 C   0  0  0  0  0  0  0  0  0  0  0  0
   -1.0413    0.1979    0.8668 C   0  0  0  0  0  0  0  0  0  0  0  0
   -0.6428    0.5596    2.1496 F   0  0  0  0  0  0  0  0  0  0  0  0
   -0.4480    1.0399   -0.2139 C   0  0  0  0  0  0  0  0  0  0  0  0
    0.8240    0.3765    0.1159 N   0  0  0  0  0  0  0  0  0  0  0  0
    1.7266    0.1862   -0.9983 C   0  0  0  0  0  0  0  0  0  0  0  0
    3.0173   -0.3778   -0.4072 C   0  0  0  0  0  0  0  0  0  0  0  0
    3.4771    0.5953    0.5139 O   0  0  0  0  0  0  0  0  0  0  0  0
   -0.0398   -0.8119    0.3377 C   0  0  0  0  0  0  0  0  0  0  0  0
   -4.0489   -0.5195   -0.3463 H   0  0  0  0  0  0  0  0  0  0  0  0
   -2.8026    0.1966   -1.1973 H   0  0  0  0  0  0  0  0  0  0  0  0
   -2.7347   -0.9591    1.5376 H   0  0  0  0  0  0  0  0  0  0  0  0
   -3.0500    0.7336    1.1872 H   0  0  0  0  0  0  0  0  0  0  0  0
   -0.4563    2.1086    0.0330 H   0  0  0  0  0  0  0  0  0  0  0  0
   -0.7898    0.7564   -1.2118 H   0  0  0  0  0  0  0  0  0  0  0  0
    1.8699    1.0402   -1.6513 H   0  0  0  0  0  0  0  0  0  0  0  0
    1.3214   -0.6787   -1.6108 H   0  0  0  0  0  0  0  0  0  0  0  0
    2.7329   -1.2634    0.2006 H   0  0  0  0  0  0  0  0  0  0  0  0
    3.7762   -0.6080   -1.1761 H   0  0  0  0  0  0  0  0  0  0  0  0
    2.7007    0.8829    1.0547 H   0  0  0  0  0  0  0  0  0  0  0  0
   -0.3149   -1.2966   -0.6290 H   0  0  0  0  0  0  0  0  0  0  0  0
    0.3948   -1.5011    1.0868 H   0  0  0  0  0  0  0  0  0  0  0  0
  1  2  1  0
  2  3  1  0
  3  4  1  0
  3  5  1  0
  5  6  1  0
  6  7  1  0
  7  8  1  0
  8  9  1  0
  6 10  1  0
 10  3  1  0
  1 11  1  0
  1 12  1  0
  2 13  1  0
  2 14  1  0
  5 15  1  0
  5 16  1  0
  7 17  1  0
  7 18  1  0
  8 19  1  0
  8 20  1  0
  9 21  1  0
 10 22  1  0
 10 23  1  0
M  END
$$$$
