
     RDKit          3D

 27 29  0  0  0  0  0  0  0  0999 V2000
    0.7960   -1.9718   -0.1903 O   0  0  0  0  0  0  0  0  0  0  0  0
    1.1939   -0.7845   -0.2453 C   0  0  0  0  0  0  0  0  0  0  0  0
    0.3171    0.3004   -0.0439 N   0  0  0  0  0  0  0  0  0  0  0  0
   -1.0716    0.1787    0.2358 C   0  0  1  0  0  0  0  0  0  0  0  0
   -1.8420    1.4983    0.3555 C   0  0  0  0  0  0  0  0  0  0  0  0
   -3.2133    1.0797    0.4149 N   0  0  0  0  0  0  0  0  0  0  0  0
   -3.3085    0.0571   -0.5866 C   0  0  0  0  0  0  0  0  0  0  0  0
   -2.0041   -0.7034   -0.4585 C   0  0  2  0  0  0  0  0  0  0  0  0
   -1.5925   -0.9840    0.9683 C   0  0  0  0  0  0  0  0  0  0  0  0
    2.6357   -0.5626   -0.5333 C   0  0  0  0  0  0  0  0  0  0  0  0
    3.2950   -1.6517   -1.0739 O   0  0  0  0  0  0  0  0  0  0  0  0
    3.4118    0.1936    0.5398 C   0  0  0  0  0  0  0  0  0  0  0  0
    3.1783    0.7841   -0.8287 C   0  0  0  0  0  0  0  0  0  0  0  0
    0.7431    1.2549   -0.1106 H   0  0  0  0  0  0  0  0  0  0  0  0
   -1.6860    2.0244   -0.6191 H   0  0  0  0  0  0  0  0  0  0  0  0
   -1.5022    2.1005    1.1990 H   0  0  0  0  0  0  0  0  0  0  0  0
   -3.5558    0.8176    1.3544 H   0  0  0  0  0  0  0  0  0  0  0  0
   -4.1787   -0.5953   -0.4947 H   0  0  0  0  0  0  0  0  0  0  0  0
   -3.2907    0.5624   -1.5876 H   0  0  0  0  0  0  0  0  0  0  0  0
   -1.7040   -1.3988   -1.2613 H   0  0  0  0  0  0  0  0  0  0  0  0
   -1.0097   -1.8720    1.1165 H   0  0  0  0  0  0  0  0  0  0  0  0
   -2.3266   -0.7463    1.7772 H   0  0  0  0  0  0  0  0  0  0  0  0
    2.7841   -2.4911   -0.9427 H   0  0  0  0  0  0  0  0  0  0  0  0
    2.8441    0.5876    1.4142 H   0  0  0  0  0  0  0  0  0  0  0  0
    4.4312   -0.1888    0.8006 H   0  0  0  0  0  0  0  0  0  0  0  0
    4.0768    0.8192   -1.4771 H   0  0  0  0  0  0  0  0  0  0  0  0
    2.5784    1.6917   -0.8458 H   0  0  0  0  0  0  0  0  0  0  0  0
  1  2  2  0
  2  3  1  0
  4  3  1  6
  4  5  1  0
  5  6  1  0
  6  7  1  0
  7  8  1  0
  8  9  1  0
  2 10  1  0
 10 11  1  0
 10 12  1  0
 12 13  1  0
  8  4  1  0
 13 10  1  0
  9  4  1  0
  3 14  1  0
  5 15  1  0
  5 16  1  0
  6 17  1  0
  7 18  1  0
  7 19  1  0
  8 20  1  6
  9 21  1  0
  9 22  1  0
 11 23  1  0
 12 24  1  0
 12 25  1  0
 13 26  1  0
 13 27  1  0
M  END
$$$$

     RDKit          3D

 27 29  0  0  0  0  0  0  0  0999 V2000
    1.0854    0.9850   -0.7507 O   0  0  0  0  0  0  0  0  0  0  0  0
    1.2319    0.0498    0.0538 C   0  0  0  0  0  0  0  0  0  0  0  0
    0.0713   -0.5750    0.5927 N   0  0  0  0  0  0  0  0  0  0  0  0
   -1.2659   -0.1983    0.2700 C   0  0  1  0  0  0  0  0  0  0  0  0
   -1.7733    1.1874    0.5431 C   0  0  0  0  0  0  0  0  0  0  0  0
   -3.1297    1.1310    0.0529 N   0  0  0  0  0  0  0  0  0  0  0  0
   -3.0230    0.3824   -1.1938 C   0  0  0  0  0  0  0  0  0  0  0  0
   -2.0631   -0.7488   -0.8043 C   0  0  2  0  0  0  0  0  0  0  0  0
   -2.3047   -1.2994    0.5519 C   0  0  0  0  0  0  0  0  0  0  0  0
    2.6160   -0.3726    0.4158 C   0  0  0  0  0  0  0  0  0  0  0  0
    2.7451   -1.4329    1.3280 O   0  0  0  0  0  0  0  0  0  0  0  0
    3.5423    0.8225    0.7510 C   0  0  0  0  0  0  0  0  0  0  0  0
    3.7549   -0.0586   -0.4373 C   0  0  0  0  0  0  0  0  0  0  0  0
    0.2698   -1.3675    1.2744 H   0  0  0  0  0  0  0  0  0  0  0  0
   -1.7677    1.3365    1.6418 H   0  0  0  0  0  0  0  0  0  0  0  0
   -1.1597    1.9435    0.0226 H   0  0  0  0  0  0  0  0  0  0  0  0
   -3.5106    2.0876   -0.0882 H   0  0  0  0  0  0  0  0  0  0  0  0
   -4.0331   -0.0012   -1.4193 H   0  0  0  0  0  0  0  0  0  0  0  0
   -2.5857    0.9918   -2.0052 H   0  0  0  0  0  0  0  0  0  0  0  0
   -1.7124   -1.4264   -1.5874 H   0  0  0  0  0  0  0  0  0  0  0  0
   -3.1730   -1.0407    1.1602 H   0  0  0  0  0  0  0  0  0  0  0  0
   -1.9158   -2.3303    0.7212 H   0  0  0  0  0  0  0  0  0  0  0  0
    2.4269   -2.2615    0.8881 H   0  0  0  0  0  0  0  0  0  0  0  0
    3.1731    1.8276    0.5266 H   0  0  0  0  0  0  0  0  0  0  0  0
    4.1683    0.7487    1.6435 H   0  0  0  0  0  0  0  0  0  0  0  0
    4.6553   -0.7315   -0.3281 H   0  0  0  0  0  0  0  0  0  0  0  0
    3.6774    0.3506   -1.4548 H   0  0  0  0  0  0  0  0  0  0  0  0
  1  2  2  0
  2  3  1  0
  4  3  1  6
  4  5  1  0
  5  6  1  0
  6  7  1  0
  7  8  1  0
  8  9  1  0
  2 10  1  0
 10 11  1  0
 10 12  1  0
 12 13  1  0
  8  4  1  0
 13 10  1  0
  9  4  1  0
  3 14  1  0
  5 15  1  0
  5 16  1  0
  6 17  1  0
  7 18  1  0
  7 19  1  0
  8 20  1  6
  9 21  1  0
  9 22  1  0
 11 23  1  0
 12 24  1  0
 12 25  1  0
 13 26  1  0
 13 27  1  0
M  END
$$$$

     RDKit          3D

 27 29  0  0  0  0  0  0  0  0999 V2000
    1.0234   -1.3502   -0.6551 O   0  0  0  0  0  0  0  0  0  0  0  0
    1.2112   -0.2056   -0.1551 C   0  0  0  0  0  0  0  0  0  0  0  0
    0.0933    0.6150    0.1114 N   0  0  0  0  0  0  0  0  0  0  0  0
   -1.2184    0.1290   -0.1912 C   0  0  1  0  0  0  0  0  0  0  0  0
   -1.7399   -1.1274    0.4638 C   0  0  0  0  0  0  0  0  0  0  0  0
   -3.1587   -0.9446    0.5196 N   0  0  0  0  0  0  0  0  0  0  0  0
   -3.3793    0.4732    0.6424 C   0  0  0  0  0  0  0  0  0  0  0  0
   -2.3392    1.1117   -0.2319 C   0  0  2  0  0  0  0  0  0  0  0  0
   -1.8797    0.4723   -1.4890 C   0  0  0  0  0  0  0  0  0  0  0  0
    2.5810    0.2678    0.1464 C   0  0  0  0  0  0  0  0  0  0  0  0
    2.6624    1.5237    0.6858 O   0  0  0  0  0  0  0  0  0  0  0  0
    3.4968   -0.8162    0.6616 C   0  0  0  0  0  0  0  0  0  0  0  0
    3.6387   -0.2761   -0.7399 C   0  0  0  0  0  0  0  0  0  0  0  0
    0.2225    1.5714    0.5271 H   0  0  0  0  0  0  0  0  0  0  0  0
   -1.4719   -1.9708   -0.2239 H   0  0  0  0  0  0  0  0  0  0  0  0
   -1.2902   -1.3388    1.4387 H   0  0  0  0  0  0  0  0  0  0  0  0
   -3.6241   -1.2824   -0.3496 H   0  0  0  0  0  0  0  0  0  0  0  0
   -4.4117    0.7662    0.3789 H   0  0  0  0  0  0  0  0  0  0  0  0
   -3.1176    0.7445    1.7032 H   0  0  0  0  0  0  0  0  0  0  0  0
   -2.1686    2.1933   -0.0882 H   0  0  0  0  0  0  0  0  0  0  0  0
   -1.2760    1.1098   -2.1551 H   0  0  0  0  0  0  0  0  0  0  0  0
   -2.5494   -0.2753   -1.9661 H   0  0  0  0  0  0  0  0  0  0  0  0
    3.4066    1.6853    1.2915 H   0  0  0  0  0  0  0  0  0  0  0  0
    4.2797   -0.5501    1.4080 H   0  0  0  0  0  0  0  0  0  0  0  0
    3.0972   -1.8466    0.8052 H   0  0  0  0  0  0  0  0  0  0  0  0
    4.5509    0.3058   -0.9910 H   0  0  0  0  0  0  0  0  0  0  0  0
    3.3608   -0.9847   -1.5475 H   0  0  0  0  0  0  0  0  0  0  0  0
  1  2  2  0
  2  3  1  0
  4  3  1  6
  4  5  1  0
  5  6  1  0
  6  7  1  0
  7  8  1  0
  8  9  1  0
  2 10  1  0
 10 11  1  0
 10 12  1  0
 12 13  1  0
  8  4  1  0
 13 10  1  0
  9  4  1  0
  3 14  1  0
  5 15  1  0
  5 16  1  0
  6 17  1  0
  7 18  1  0
  7 19  1  0
  8 20  1  6
  9 21  1  0
  9 22  1  0
 11 23  1  0
 12 24  1  0
 12 25  1  0
 13 26  1  0
 13 27  1  0
M  END
$$$$

     RDKit          3D

 27 29  0  0  0  0  0  0  0  0999 V2000
    1.0470    0.6115   -1.2173 O   0  0  0  0  0  0  0  0  0  0  0  0
    1.2129   -0.0363   -0.1530 C   0  0  0  0  0  0  0  0  0  0  0  0
    0.0557   -0.2878    0.6346 N   0  0  0  0  0  0  0  0  0  0  0  0
   -1.2498    0.1676    0.2509 C   0  0  1  0  0  0  0  0  0  0  0  0
   -1.7634   -0.3427   -1.0557 C   0  0  0  0  0  0  0  0  0  0  0  0
   -3.1881   -0.2959   -1.0325 N   0  0  0  0  0  0  0  0  0  0  0  0
   -3.6294   -0.0089    0.2947 C   0  0  0  0  0  0  0  0  0  0  0  0
   -2.3895    0.2452    1.1393 C   0  0  2  0  0  0  0  0  0  0  0  0
   -1.6488    1.5180    0.7166 C   0  0  0  0  0  0  0  0  0  0  0  0
    2.5782   -0.5078    0.2401 C   0  0  0  0  0  0  0  0  0  0  0  0
    2.7149   -1.2145    1.4145 O   0  0  0  0  0  0  0  0  0  0  0  0
    3.7047    0.4034   -0.1926 C   0  0  0  0  0  0  0  0  0  0  0  0
    3.5277   -0.8520   -0.9286 C   0  0  0  0  0  0  0  0  0  0  0  0
    0.1873   -0.8256    1.5202 H   0  0  0  0  0  0  0  0  0  0  0  0
   -1.3913   -1.3925   -1.2207 H   0  0  0  0  0  0  0  0  0  0  0  0
   -1.3054    0.2524   -1.8763 H   0  0  0  0  0  0  0  0  0  0  0  0
   -3.5117    0.3853   -1.7550 H   0  0  0  0  0  0  0  0  0  0  0  0
   -4.1649    0.9848    0.2554 H   0  0  0  0  0  0  0  0  0  0  0  0
   -4.2938   -0.7629    0.7393 H   0  0  0  0  0  0  0  0  0  0  0  0
   -2.4031   -0.0147    2.2029 H   0  0  0  0  0  0  0  0  0  0  0  0
   -1.0509    1.9813    1.5126 H   0  0  0  0  0  0  0  0  0  0  0  0
   -2.0940    2.1754   -0.0281 H   0  0  0  0  0  0  0  0  0  0  0  0
    3.6496   -1.5767    1.4229 H   0  0  0  0  0  0  0  0  0  0  0  0
    4.6126    0.4657    0.4641 H   0  0  0  0  0  0  0  0  0  0  0  0
    3.4278    1.3806   -0.6363 H   0  0  0  0  0  0  0  0  0  0  0  0
    4.2546   -1.6688   -0.7677 H   0  0  0  0  0  0  0  0  0  0  0  0
    3.1113   -0.7838   -1.9443 H   0  0  0  0  0  0  0  0  0  0  0  0
  1  2  2  0
  2  3  1  0
  4  3  1  1
  4  5  1  0
  5  6  1  0
  6  7  1  0
  7  8  1  0
  8  9  1  0
  2 10  1  0
 10 11  1  0
 10 12  1  0
 12 13  1  0
  8  4  1  0
 13 10  1  0
  9  4  1  0
  3 14  1  0
  5 15  1  0
  5 16  1  0
  6 17  1  0
  7 18  1  0
  7 19  1  0
  8 20  1  1
  9 21  1  0
  9 22  1  0
 11 23  1  0
 12 24  1  0
 12 25  1  0
 13 26  1  0
 13 27  1  0
M  END
$$$$

     RDKit          3D

 27 29  0  0  0  0  0  0  0  0999 V2000
    1.1843   -0.3573   -1.6755 O   0  0  0  0  0  0  0  0  0  0  0  0
    1.3065   -0.3855   -0.4739 C   0  0  0  0  0  0  0  0  0  0  0  0
    0.1773   -0.2422    0.4538 N   0  0  0  0  0  0  0  0  0  0  0  0
   -1.1309   -0.0757   -0.1387 C   0  0  1  0  0  0  0  0  0  0  0  0
   -2.1505   -1.0176    0.5015 C   0  0  0  0  0  0  0  0  0  0  0  0
   -3.4174   -0.6209   -0.0183 N   0  0  0  0  0  0  0  0  0  0  0  0
   -3.3522    0.8297    0.0735 C   0  0  0  0  0  0  0  0  0  0  0  0
   -1.8768    1.1844   -0.1681 C   0  0  2  0  0  0  0  0  0  0  0  0
   -1.3179    0.5845   -1.4149 C   0  0  0  0  0  0  0  0  0  0  0  0
    2.6131   -0.5916    0.2252 C   0  0  0  0  0  0  0  0  0  0  0  0
    2.4812   -1.5988    1.2141 O   0  0  0  0  0  0  0  0  0  0  0  0
    3.0725    0.7572    0.8586 C   0  0  0  0  0  0  0  0  0  0  0  0
    3.8517    0.0095   -0.1803 C   0  0  0  0  0  0  0  0  0  0  0  0
    0.2886   -0.2368    1.4663 H   0  0  0  0  0  0  0  0  0  0  0  0
   -1.8650   -2.0708    0.2228 H   0  0  0  0  0  0  0  0  0  0  0  0
   -2.1087   -0.9294    1.5830 H   0  0  0  0  0  0  0  0  0  0  0  0
   -3.5664   -0.9336   -1.0036 H   0  0  0  0  0  0  0  0  0  0  0  0
   -3.6974    1.1243    1.0759 H   0  0  0  0  0  0  0  0  0  0  0  0
   -3.9367    1.2664   -0.7440 H   0  0  0  0  0  0  0  0  0  0  0  0
   -1.5220    2.1332    0.2217 H   0  0  0  0  0  0  0  0  0  0  0  0
   -0.4747    1.1310   -1.8500 H   0  0  0  0  0  0  0  0  0  0  0  0
   -2.0065    0.1069   -2.1516 H   0  0  0  0  0  0  0  0  0  0  0  0
    2.7109   -2.4528    0.7005 H   0  0  0  0  0  0  0  0  0  0  0  0
    3.3445    0.6505    1.9305 H   0  0  0  0  0  0  0  0  0  0  0  0
    2.6050    1.6775    0.5466 H   0  0  0  0  0  0  0  0  0  0  0  0
    4.7944   -0.4550    0.2084 H   0  0  0  0  0  0  0  0  0  0  0  0
    3.9929    0.5128   -1.1601 H   0  0  0  0  0  0  0  0  0  0  0  0
  1  2  2  0
  2  3  1  0
  4  3  1  1
  4  5  1  0
  5  6  1  0
  6  7  1  0
  7  8  1  0
  8  9  1  0
  2 10  1  0
 10 11  1  0
 10 12  1  0
 12 13  1  0
  8  4  1  0
 13 10  1  0
  9  4  1  0
  3 14  1  0
  5 15  1  0
  5 16  1  0
  6 17  1  0
  7 18  1  0
  7 19  1  0
  8 20  1  1
  9 21  1  0
  9 22  1  0
 11 23  1  0
 12 24  1  0
 12 25  1  0
 13 26  1  0
 13 27  1  0
M  END
$$$$

     RDKit          3D

 27 29  0  0  0  0  0  0  0  0999 V2000
    0.9928   -0.5983    1.2796 O   0  0  0  0  0  0  0  0  0  0  0  0
    1.1168   -0.0584    0.2478 C   0  0  0  0  0  0  0  0  0  0  0  0
    0.0312    0.5630   -0.5217 N   0  0  0  0  0  0  0  0  0  0  0  0
   -1.3047    0.4980   -0.0440 C   0  0  1  0  0  0  0  0  0  0  0  0
   -2.2836   -0.2525   -1.0155 C   0  0  0  0  0  0  0  0  0  0  0  0
   -3.1979   -0.9468   -0.1571 N   0  0  0  0  0  0  0  0  0  0  0  0
   -2.3704   -1.2662    0.9658 C   0  0  0  0  0  0  0  0  0  0  0  0
   -1.6469   -0.0144    1.3057 C   0  0  2  0  0  0  0  0  0  0  0  0
   -2.0269    1.3449    0.8753 C   0  0  0  0  0  0  0  0  0  0  0  0
    2.4888   -0.0289   -0.3882 C   0  0  0  0  0  0  0  0  0  0  0  0
    2.4828   -0.4579   -1.7152 O   0  0  0  0  0  0  0  0  0  0  0  0
    3.6304   -0.3532    0.5639 C   0  0  0  0  0  0  0  0  0  0  0  0
    3.5040    0.9764   -0.0623 C   0  0  0  0  0  0  0  0  0  0  0  0
    0.2628    0.9919   -1.4083 H   0  0  0  0  0  0  0  0  0  0  0  0
   -2.8138    0.5729   -1.5051 H   0  0  0  0  0  0  0  0  0  0  0  0
   -1.7078   -0.8985   -1.6961 H   0  0  0  0  0  0  0  0  0  0  0  0
   -3.9943   -0.3284    0.1426 H   0  0  0  0  0  0  0  0  0  0  0  0
   -2.9023   -1.7599    1.7967 H   0  0  0  0  0  0  0  0  0  0  0  0
   -1.5865   -1.9924    0.5923 H   0  0  0  0  0  0  0  0  0  0  0  0
   -0.9990   -0.0574    2.1688 H   0  0  0  0  0  0  0  0  0  0  0  0
   -3.1394    1.5436    0.7682 H   0  0  0  0  0  0  0  0  0  0  0  0
   -1.5153    2.1957    1.3263 H   0  0  0  0  0  0  0  0  0  0  0  0
    1.7796   -1.1730   -1.8190 H   0  0  0  0  0  0  0  0  0  0  0  0
    4.3545   -1.1226    0.2998 H   0  0  0  0  0  0  0  0  0  0  0  0
    3.3563   -0.4047    1.6679 H   0  0  0  0  0  0  0  0  0  0  0  0
    4.2810    1.1755   -0.8584 H   0  0  0  0  0  0  0  0  0  0  0  0
    3.2079    1.8516    0.4992 H   0  0  0  0  0  0  0  0  0  0  0  0
  1  2  2  0
  2  3  1  0
  4  3  1  6
  4  5  1  0
  5  6  1  0
  6  7  1  0
  7  8  1  0
  8  9  1  0
  2 10  1  0
 10 11  1  0
 10 12  1  0
 12 13  1  0
  8  4  1  0
 13 10  1  0
  9  4  1  0
  3 14  1  0
  5 15  1  0
  5 16  1  0
  6 17  1  0
  7 18  1  0
  7 19  1  0
  8 20  1  1
  9 21  1  0
  9 22  1  0
 11 23  1  0
 12 24  1  0
 12 25  1  0
 13 26  1  0
 13 27  1  0
M  END
$$$$

     RDKit          3D

 27 29  0  0  0  0  0  0  0  0999 V2000
    0.9053    0.2763   -1.6474 O   0  0  0  0  0  0  0  0  0  0  0  0
    1.1963   -0.0663   -0.4748 C   0  0  0  0  0  0  0  0  0  0  0  0
    0.1724   -0.1033    0.5097 N   0  0  0  0  0  0  0  0  0  0  0  0
   -1.1746    0.2522    0.1427 C   0  0  1  0  0  0  0  0  0  0  0  0
   -1.9087   -0.5069   -0.9096 C   0  0  0  0  0  0  0  0  0  0  0  0
   -3.3125   -0.2975   -0.6096 N   0  0  0  0  0  0  0  0  0  0  0  0
   -3.3420   -0.3180    0.8394 C   0  0  0  0  0  0  0  0  0  0  0  0
   -2.1796    0.5204    1.2461 C   0  0  2  0  0  0  0  0  0  0  0  0
   -1.6758    1.6427    0.4295 C   0  0  0  0  0  0  0  0  0  0  0  0
    2.6083   -0.4336   -0.1118 C   0  0  0  0  0  0  0  0  0  0  0  0
    2.8456   -0.8020    1.2107 O   0  0  0  0  0  0  0  0  0  0  0  0
    3.4283   -1.1275   -1.1320 C   0  0  0  0  0  0  0  0  0  0  0  0
    3.6767    0.3416   -0.8351 C   0  0  0  0  0  0  0  0  0  0  0  0
    0.4249   -0.3938    1.4997 H   0  0  0  0  0  0  0  0  0  0  0  0
   -1.7266   -0.0038   -1.8961 H   0  0  0  0  0  0  0  0  0  0  0  0
   -1.6273   -1.5670   -0.9377 H   0  0  0  0  0  0  0  0  0  0  0  0
   -3.5914    0.6573   -0.9356 H   0  0  0  0  0  0  0  0  0  0  0  0
   -3.1226   -1.3726    1.1461 H   0  0  0  0  0  0  0  0  0  0  0  0
   -4.3094   -0.0108    1.2623 H   0  0  0  0  0  0  0  0  0  0  0  0
   -1.8217    0.3817    2.2699 H   0  0  0  0  0  0  0  0  0  0  0  0
   -0.9248    2.2914    0.9195 H   0  0  0  0  0  0  0  0  0  0  0  0
   -2.2812    2.1448   -0.3321 H   0  0  0  0  0  0  0  0  0  0  0  0
    2.5688   -0.0851    1.8473 H   0  0  0  0  0  0  0  0  0  0  0  0
    2.9493   -1.3335   -2.1085 H   0  0  0  0  0  0  0  0  0  0  0  0
    4.2439   -1.8000   -0.8276 H   0  0  0  0  0  0  0  0  0  0  0  0
    3.3899    1.0856   -1.6052 H   0  0  0  0  0  0  0  0  0  0  0  0
    4.5885    0.6277   -0.2819 H   0  0  0  0  0  0  0  0  0  0  0  0
  1  2  2  0
  2  3  1  0
  4  3  1  1
  4  5  1  0
  5  6  1  0
  6  7  1  0
  7  8  1  0
  8  9  1  0
  2 10  1  0
 10 11  1  0
 10 12  1  0
 12 13  1  0
  8  4  1  0
 13 10  1  0
  9  4  1  0
  3 14  1  0
  5 15  1  0
  5 16  1  0
  6 17  1  0
  7 18  1  0
  7 19  1  0
  8 20  1  1
  9 21  1  0
  9 22  1  0
 11 23  1  0
 12 24  1  0
 12 25  1  0
 13 26  1  0
 13 27  1  0
M  END
$$$$

     RDKit          3D

 27 29  0  0  0  0  0  0  0  0999 V2000
    1.1818   -1.2399    1.3123 O   0  0  0  0  0  0  0  0  0  0  0  0
    1.3048   -0.5315    0.2712 C   0  0  0  0  0  0  0  0  0  0  0  0
    0.2382    0.2610   -0.1996 N   0  0  0  0  0  0  0  0  0  0  0  0
   -1.0814    0.3118    0.4139 C   0  0  1  0  0  0  0  0  0  0  0  0
   -1.9517    1.4401   -0.0726 C   0  0  0  0  0  0  0  0  0  0  0  0
   -3.0857    0.9224   -0.7422 N   0  0  0  0  0  0  0  0  0  0  0  0
   -3.3222   -0.4123   -0.2553 C   0  0  0  0  0  0  0  0  0  0  0  0
   -1.9776   -0.8683    0.1607 C   0  0  2  0  0  0  0  0  0  0  0  0
   -1.5350   -0.4671    1.5469 C   0  0  0  0  0  0  0  0  0  0  0  0
    2.6146   -0.5551   -0.4153 C   0  0  0  0  0  0  0  0  0  0  0  0
    2.5193   -1.1932   -1.6767 O   0  0  0  0  0  0  0  0  0  0  0  0
    3.8907   -0.2754    0.2026 C   0  0  0  0  0  0  0  0  0  0  0  0
    3.2310    0.8269   -0.5652 C   0  0  0  0  0  0  0  0  0  0  0  0
    0.4360    0.8271   -1.0620 H   0  0  0  0  0  0  0  0  0  0  0  0
   -2.2971    2.0221    0.8313 H   0  0  0  0  0  0  0  0  0  0  0  0
   -1.3880    2.0969   -0.7854 H   0  0  0  0  0  0  0  0  0  0  0  0
   -3.9533    1.4831   -0.4563 H   0  0  0  0  0  0  0  0  0  0  0  0
   -4.0438   -0.4013    0.6141 H   0  0  0  0  0  0  0  0  0  0  0  0
   -3.7944   -1.0501   -1.0347 H   0  0  0  0  0  0  0  0  0  0  0  0
   -1.5086   -1.7248   -0.3631 H   0  0  0  0  0  0  0  0  0  0  0  0
   -1.0023   -1.2772    2.0793 H   0  0  0  0  0  0  0  0  0  0  0  0
   -2.2786    0.0091    2.2286 H   0  0  0  0  0  0  0  0  0  0  0  0
    2.7251   -2.1353   -1.5089 H   0  0  0  0  0  0  0  0  0  0  0  0
    4.8147   -0.6594   -0.2691 H   0  0  0  0  0  0  0  0  0  0  0  0
    3.9859   -0.1106    1.3171 H   0  0  0  0  0  0  0  0  0  0  0  0
    2.7377    1.6298   -0.0195 H   0  0  0  0  0  0  0  0  0  0  0  0
    3.5397    1.0713   -1.5975 H   0  0  0  0  0  0  0  0  0  0  0  0
  1  2  2  0
  2  3  1  0
  4  3  1  6
  4  5  1  0
  5  6  1  0
  6  7  1  0
  7  8  1  0
  8  9  1  0
  2 10  1  0
 10 11  1  0
 10 12  1  0
 12 13  1  0
  8  4  1  0
 13 10  1  0
  9  4  1  0
  3 14  1  0
  5 15  1  0
  5 16  1  0
  6 17  1  0
  7 18  1  0
  7 19  1  0
  8 20  1  6
  9 21  1  0
  9 22  1  0
 11 23  1  0
 12 24  1  0
 12 25  1  0
 13 26  1  0
 13 27  1  0
M  END
$$$$
