
     RDKit          3D

 30 30  0  0  0  0  0  0  0  0999 V2000
   -3.2906    1.3539    0.3072 C   0  0  0  0  0  0  0  0  0  0  0  0
   -2.3213    0.3017   -0.1982 C   0  0  1  0  0  0  0  0  0  0  0  0
   -0.9582    0.9008   -0.3903 C   0  0  0  0  0  0  0  0  0  0  0  0
    0.0231    0.0583    0.2772 N   0  0  0  0  0  0  0  0  0  0  0  0
    1.1185   -0.1546   -0.6588 C   0  0  0  0  0  0  0  0  0  0  0  0
    2.3278   -0.7765    0.0460 C   0  0  1  0  0  0  0  0  0  0  0  0
    3.2798   -0.9549   -0.9771 O   0  0  0  0  0  0  0  0  0  0  0  0
    2.9206    0.2370    1.0264 C   0  0  0  0  0  0  0  0  0  0  0  0
    3.2077    1.5146    0.3890 N   0  0  0  0  0  0  0  0  0  0  0  0
   -0.6740   -1.1998    0.5212 C   0  0  0  0  0  0  0  0  0  0  0  0
   -2.0711   -0.7500    0.8504 C   0  0  2  0  0  0  0  0  0  0  0  0
   -3.0086   -1.7941    0.7393 O   0  0  0  0  0  0  0  0  0  0  0  0
   -2.7745    2.3297    0.2331 H   0  0  0  0  0  0  0  0  0  0  0  0
   -3.5284    1.2214    1.3771 H   0  0  0  0  0  0  0  0  0  0  0  0
   -4.1940    1.3849   -0.3421 H   0  0  0  0  0  0  0  0  0  0  0  0
   -2.6903   -0.2013   -1.1227 H   0  0  0  0  0  0  0  0  0  0  0  0
   -0.7523    0.9263   -1.4603 H   0  0  0  0  0  0  0  0  0  0  0  0
   -0.9335    1.9349    0.0639 H   0  0  0  0  0  0  0  0  0  0  0  0
    0.7899   -0.7936   -1.5008 H   0  0  0  0  0  0  0  0  0  0  0  0
    1.4411    0.8058   -1.0871 H   0  0  0  0  0  0  0  0  0  0  0  0
    2.0924   -1.6843    0.5800 H   0  0  0  0  0  0  0  0  0  0  0  0
    3.0505   -1.8069   -1.4513 H   0  0  0  0  0  0  0  0  0  0  0  0
    2.3316    0.3628    1.9319 H   0  0  0  0  0  0  0  0  0  0  0  0
    3.9198   -0.1849    1.3236 H   0  0  0  0  0  0  0  0  0  0  0  0
    2.3870    2.0780    0.1558 H   0  0  0  0  0  0  0  0  0  0  0  0
    3.9371    1.4098   -0.3308 H   0  0  0  0  0  0  0  0  0  0  0  0
   -0.2476   -1.7662    1.3661 H   0  0  0  0  0  0  0  0  0  0  0  0
   -0.7460   -1.8164   -0.4296 H   0  0  0  0  0  0  0  0  0  0  0  0
   -2.1079   -0.2885    1.8580 H   0  0  0  0  0  0  0  0  0  0  0  0
   -2.5286   -2.6478    0.8940 H   0  0  0  0  0  0  0  0  0  0  0  0
  1  2  1  0
  2  3  1  0
  3  4  1  0
  4  5  1  0
  5  6  1  0
  6  7  1  0
  6  8  1  0
  8  9  1  0
  4 10  1  0
 10 11  1  0
 11 12  1  0
 11  2  1  0
  1 13  1  0
  1 14  1  0
  1 15  1  0
  2 16  1  6
  3 17  1  0
  3 18  1  0
  5 19  1  0
  5 20  1  0
  6 21  1  1
  7 22  1  0
  8 23  1  0
  8 24  1  0
  9 25  1  0
  9 26  1  0
 10 27  1  0
 10 28  1  0
 11 29  1  1
 12 30  1  0
M  END
$$$$

     RDKit          3D

 30 30  0  0  0  0  0  0  0  0999 V2000
   -3.7012   -0.3215   -0.7423 C   0  0  0  0  0  0  0  0  0  0  0  0
   -2.5090   -0.3164    0.1598 C   0  0  1  0  0  0  0  0  0  0  0  0
   -1.3290   -0.9263   -0.5947 C   0  0  0  0  0  0  0  0  0  0  0  0
   -0.2139   -0.3578    0.0747 N   0  0  0  0  0  0  0  0  0  0  0  0
    1.0500   -0.5784   -0.5357 C   0  0  0  0  0  0  0  0  0  0  0  0
    2.1275    0.0902    0.2997 C   0  0  1  0  0  0  0  0  0  0  0  0
    2.1654   -0.4177    1.5871 O   0  0  0  0  0  0  0  0  0  0  0  0
    3.4482   -0.2051   -0.3607 C   0  0  0  0  0  0  0  0  0  0  0  0
    4.5140    0.4146    0.3793 N   0  0  0  0  0  0  0  0  0  0  0  0
   -0.4937    0.9908    0.4293 C   0  0  0  0  0  0  0  0  0  0  0  0
   -1.9956    1.0859    0.4491 C   0  0  2  0  0  0  0  0  0  0  0  0
   -2.4647    1.4960    1.6968 O   0  0  0  0  0  0  0  0  0  0  0  0
   -4.2899    0.6080   -0.6660 H   0  0  0  0  0  0  0  0  0  0  0  0
   -3.4019   -0.5462   -1.7841 H   0  0  0  0  0  0  0  0  0  0  0  0
   -4.3583   -1.1738   -0.4279 H   0  0  0  0  0  0  0  0  0  0  0  0
   -2.6704   -0.8614    1.1044 H   0  0  0  0  0  0  0  0  0  0  0  0
   -1.3522   -2.0239   -0.4680 H   0  0  0  0  0  0  0  0  0  0  0  0
   -1.4060   -0.6762   -1.6679 H   0  0  0  0  0  0  0  0  0  0  0  0
    1.2681   -1.6842   -0.4654 H   0  0  0  0  0  0  0  0  0  0  0  0
    1.1274   -0.3098   -1.5963 H   0  0  0  0  0  0  0  0  0  0  0  0
    1.9554    1.1879    0.3756 H   0  0  0  0  0  0  0  0  0  0  0  0
    2.4450   -1.3603    1.5578 H   0  0  0  0  0  0  0  0  0  0  0  0
    3.4052    0.1371   -1.4175 H   0  0  0  0  0  0  0  0  0  0  0  0
    3.5469   -1.3134   -0.4086 H   0  0  0  0  0  0  0  0  0  0  0  0
    4.1007    1.1874    0.9496 H   0  0  0  0  0  0  0  0  0  0  0  0
    5.0003   -0.3086    0.9520 H   0  0  0  0  0  0  0  0  0  0  0  0
   -0.1196    1.1449    1.4856 H   0  0  0  0  0  0  0  0  0  0  0  0
   -0.0126    1.7455   -0.2177 H   0  0  0  0  0  0  0  0  0  0  0  0
   -2.3770    1.7709   -0.3596 H   0  0  0  0  0  0  0  0  0  0  0  0
   -3.4590    1.5218    1.6316 H   0  0  0  0  0  0  0  0  0  0  0  0
  1  2  1  0
  2  3  1  0
  3  4  1  0
  4  5  1  0
  5  6  1  0
  6  7  1  0
  6  8  1  0
  8  9  1  0
  4 10  1  0
 10 11  1  0
 11 12  1  0
 11  2  1  0
  1 13  1  0
  1 14  1  0
  1 15  1  0
  2 16  1  1
  3 17  1  0
  3 18  1  0
  5 19  1  0
  5 20  1  0
  6 21  1  1
  7 22  1  0
  8 23  1  0
  8 24  1  0
  9 25  1  0
  9 26  1  0
 10 27  1  0
 10 28  1  0
 11 29  1  6
 12 30  1  0
M  END
$$$$

     RDKit          3D

 30 30  0  0  0  0  0  0  0  0999 V2000
   -3.5051    0.9911   -0.0472 C   0  0  0  0  0  0  0  0  0  0  0  0
   -2.1876    0.3156   -0.2554 C   0  0  1  0  0  0  0  0  0  0  0  0
   -1.0614    1.0782    0.4419 C   0  0  0  0  0  0  0  0  0  0  0  0
   -0.0553    0.1095    0.7539 N   0  0  0  0  0  0  0  0  0  0  0  0
    1.1484    0.4010    0.0357 C   0  0  0  0  0  0  0  0  0  0  0  0
    2.2692   -0.5519    0.2894 C   0  0  1  0  0  0  0  0  0  0  0  0
    2.0011   -1.8534   -0.0381 O   0  0  0  0  0  0  0  0  0  0  0  0
    3.4499   -0.0935   -0.5735 C   0  0  0  0  0  0  0  0  0  0  0  0
    3.7125    1.2967   -0.2024 N   0  0  0  0  0  0  0  0  0  0  0  0
   -0.5819   -1.1971    0.5360 C   0  0  0  0  0  0  0  0  0  0  0  0
   -2.1043   -1.0215    0.4549 C   0  0  2  0  0  0  0  0  0  0  0  0
   -2.6391   -2.0571   -0.2750 O   0  0  0  0  0  0  0  0  0  0  0  0
   -3.7144    1.1189    1.0395 H   0  0  0  0  0  0  0  0  0  0  0  0
   -4.2886    0.3480   -0.4955 H   0  0  0  0  0  0  0  0  0  0  0  0
   -3.4913    1.9453   -0.5963 H   0  0  0  0  0  0  0  0  0  0  0  0
   -1.9620    0.1997   -1.3148 H   0  0  0  0  0  0  0  0  0  0  0  0
   -0.7213    1.9072   -0.1809 H   0  0  0  0  0  0  0  0  0  0  0  0
   -1.5220    1.4431    1.4055 H   0  0  0  0  0  0  0  0  0  0  0  0
    0.9930    0.5080   -1.0582 H   0  0  0  0  0  0  0  0  0  0  0  0
    1.4949    1.4127    0.3802 H   0  0  0  0  0  0  0  0  0  0  0  0
    2.6011   -0.5196    1.3421 H   0  0  0  0  0  0  0  0  0  0  0  0
    2.1990   -2.0893   -0.9746 H   0  0  0  0  0  0  0  0  0  0  0  0
    4.3420   -0.7310   -0.4086 H   0  0  0  0  0  0  0  0  0  0  0  0
    3.1330   -0.0670   -1.6357 H   0  0  0  0  0  0  0  0  0  0  0  0
    3.5305    1.3754    0.8216 H   0  0  0  0  0  0  0  0  0  0  0  0
    3.1166    1.9549   -0.7380 H   0  0  0  0  0  0  0  0  0  0  0  0
   -0.2919   -1.6444   -0.4375 H   0  0  0  0  0  0  0  0  0  0  0  0
   -0.3835   -1.8575    1.3990 H   0  0  0  0  0  0  0  0  0  0  0  0
   -2.4915   -0.9244    1.4762 H   0  0  0  0  0  0  0  0  0  0  0  0
   -2.9899   -1.7975   -1.1441 H   0  0  0  0  0  0  0  0  0  0  0  0
  1  2  1  0
  2  3  1  0
  3  4  1  0
  4  5  1  0
  5  6  1  0
  6  7  1  0
  6  8  1  0
  8  9  1  0
  4 10  1  0
 10 11  1  0
 11 12  1  0
 11  2  1  0
  1 13  1  0
  1 14  1  0
  1 15  1  0
  2 16  1  6
  3 17  1  0
  3 18  1  0
  5 19  1  0
  5 20  1  0
  6 21  1  1
  7 22  1  0
  8 23  1  0
  8 24  1  0
  9 25  1  0
  9 26  1  0
 10 27  1  0
 10 28  1  0
 11 29  1  1
 12 30  1  0
M  END
$$$$

     RDKit          3D

 30 30  0  0  0  0  0  0  0  0999 V2000
    3.7107    0.1409   -0.6481 C   0  0  0  0  0  0  0  0  0  0  0  0
    2.2917    0.6523   -0.4628 C   0  0  1  0  0  0  0  0  0  0  0  0
    1.3421    0.0755   -1.4554 C   0  0  0  0  0  0  0  0  0  0  0  0
    0.1645   -0.3853   -0.7436 N   0  0  0  0  0  0  0  0  0  0  0  0
   -1.0046    0.0136   -1.4367 C   0  0  0  0  0  0  0  0  0  0  0  0
   -2.3113   -0.3970   -0.8764 C   0  0  1  0  0  0  0  0  0  0  0  0
   -2.5000   -1.7647   -0.7450 O   0  0  0  0  0  0  0  0  0  0  0  0
   -2.7251    0.2910    0.3991 C   0  0  0  0  0  0  0  0  0  0  0  0
   -4.1485   -0.0048    0.6097 N   0  0  0  0  0  0  0  0  0  0  0  0
    0.2889   -0.0062    0.6180 C   0  0  0  0  0  0  0  0  0  0  0  0
    1.7960    0.1068    0.8355 C   0  0  2  0  0  0  0  0  0  0  0  0
    2.0888    0.9445    1.9052 O   0  0  0  0  0  0  0  0  0  0  0  0
    4.0593    0.1916   -1.6813 H   0  0  0  0  0  0  0  0  0  0  0  0
    4.3542    0.7145    0.0499 H   0  0  0  0  0  0  0  0  0  0  0  0
    3.7516   -0.9272   -0.2845 H   0  0  0  0  0  0  0  0  0  0  0  0
    2.2846    1.7604   -0.4177 H   0  0  0  0  0  0  0  0  0  0  0  0
    1.0352    0.8989   -2.1586 H   0  0  0  0  0  0  0  0  0  0  0  0
    1.7860   -0.7820   -1.9924 H   0  0  0  0  0  0  0  0  0  0  0  0
   -1.0251    1.1164   -1.6645 H   0  0  0  0  0  0  0  0  0  0  0  0
   -0.9317   -0.4464   -2.4691 H   0  0  0  0  0  0  0  0  0  0  0  0
   -3.1386   -0.0933   -1.6163 H   0  0  0  0  0  0  0  0  0  0  0  0
   -1.6298   -2.2121   -0.8812 H   0  0  0  0  0  0  0  0  0  0  0  0
   -2.2273   -0.0656    1.3036 H   0  0  0  0  0  0  0  0  0  0  0  0
   -2.6113    1.3909    0.2964 H   0  0  0  0  0  0  0  0  0  0  0  0
   -4.7183    0.1923   -0.2231 H   0  0  0  0  0  0  0  0  0  0  0  0
   -4.1956   -0.9927    0.9026 H   0  0  0  0  0  0  0  0  0  0  0  0
   -0.1231    0.9682    0.8918 H   0  0  0  0  0  0  0  0  0  0  0  0
   -0.0099   -0.8351    1.3293 H   0  0  0  0  0  0  0  0  0  0  0  0
    2.2306   -0.9073    0.9858 H   0  0  0  0  0  0  0  0  0  0  0  0
    2.1161    0.3620    2.7199 H   0  0  0  0  0  0  0  0  0  0  0  0
  1  2  1  0
  2  3  1  0
  3  4  1  0
  4  5  1  0
  5  6  1  0
  6  7  1  0
  6  8  1  0
  8  9  1  0
  4 10  1  0
 10 11  1  0
 11 12  1  0
 11  2  1  0
  1 13  1  0
  1 14  1  0
  1 15  1  0
  2 16  1  1
  3 17  1  0
  3 18  1  0
  5 19  1  0
  5 20  1  0
  6 21  1  6
  7 22  1  0
  8 23  1  0
  8 24  1  0
  9 25  1  0
  9 26  1  0
 10 27  1  0
 10 28  1  0
 11 29  1  1
 12 30  1  0
M  END
$$$$

     RDKit          3D

 30 30  0  0  0  0  0  0  0  0999 V2000
   -2.9110    1.6100    0.1752 C   0  0  0  0  0  0  0  0  0  0  0  0
   -2.3716    0.3391   -0.4672 C   0  0  1  0  0  0  0  0  0  0  0  0
   -0.8900    0.4523   -0.7877 C   0  0  0  0  0  0  0  0  0  0  0  0
   -0.2277   -0.4480    0.1011 N   0  0  0  0  0  0  0  0  0  0  0  0
    1.0705   -0.8811   -0.2771 C   0  0  0  0  0  0  0  0  0  0  0  0
    2.0387    0.2651   -0.2103 C   0  0  1  0  0  0  0  0  0  0  0  0
    2.0661    0.7686    1.0945 O   0  0  0  0  0  0  0  0  0  0  0  0
    3.4599   -0.2555   -0.4561 C   0  0  0  0  0  0  0  0  0  0  0  0
    4.3556    0.8711   -0.3107 N   0  0  0  0  0  0  0  0  0  0  0  0
   -1.1549   -1.5486    0.3123 C   0  0  0  0  0  0  0  0  0  0  0  0
   -2.4655   -0.8130    0.5095 C   0  0  2  0  0  0  0  0  0  0  0  0
   -3.5437   -1.6168    0.2053 O   0  0  0  0  0  0  0  0  0  0  0  0
   -3.1038    2.3853   -0.5654 H   0  0  0  0  0  0  0  0  0  0  0  0
   -2.1059    1.9795    0.8672 H   0  0  0  0  0  0  0  0  0  0  0  0
   -3.8013    1.3642    0.8095 H   0  0  0  0  0  0  0  0  0  0  0  0
   -2.9825    0.1533   -1.3663 H   0  0  0  0  0  0  0  0  0  0  0  0
   -0.7191    0.2156   -1.8472 H   0  0  0  0  0  0  0  0  0  0  0  0
   -0.6220    1.5103   -0.6121 H   0  0  0  0  0  0  0  0  0  0  0  0
    1.4049   -1.6380    0.4637 H   0  0  0  0  0  0  0  0  0  0  0  0
    1.1039   -1.3960   -1.2635 H   0  0  0  0  0  0  0  0  0  0  0  0
    1.8062    1.0045   -0.9735 H   0  0  0  0  0  0  0  0  0  0  0  0
    1.9505    1.7451    1.1437 H   0  0  0  0  0  0  0  0  0  0  0  0
    3.5862   -0.7153   -1.4413 H   0  0  0  0  0  0  0  0  0  0  0  0
    3.6449   -0.9814    0.3691 H   0  0  0  0  0  0  0  0  0  0  0  0
    4.1652    1.5124   -1.1060 H   0  0  0  0  0  0  0  0  0  0  0  0
    4.1338    1.4062    0.5667 H   0  0  0  0  0  0  0  0  0  0  0  0
   -1.2236   -2.2176   -0.5480 H   0  0  0  0  0  0  0  0  0  0  0  0
   -0.8910   -2.0599    1.2484 H   0  0  0  0  0  0  0  0  0  0  0  0
   -2.5024   -0.4624    1.5656 H   0  0  0  0  0  0  0  0  0  0  0  0
   -3.2706   -2.5490   -0.0608 H   0  0  0  0  0  0  0  0  0  0  0  0
  1  2  1  0
  2  3  1  0
  3  4  1  0
  4  5  1  0
  5  6  1  0
  6  7  1  0
  6  8  1  0
  8  9  1  0
  4 10  1  0
 10 11  1  0
 11 12  1  0
 11  2  1  0
  1 13  1  0
  1 14  1  0
  1 15  1  0
  2 16  1  6
  3 17  1  0
  3 18  1  0
  5 19  1  0
  5 20  1  0
  6 21  1  6
  7 22  1  0
  8 23  1  0
  8 24  1  0
  9 25  1  0
  9 26  1  0
 10 27  1  0
 10 28  1  0
 11 29  1  1
 12 30  1  0
M  END
$$$$

     RDKit          3D

 30 30  0  0  0  0  0  0  0  0999 V2000
    3.4544    1.2126    0.9036 C   0  0  0  0  0  0  0  0  0  0  0  0
    2.5542    0.0620    0.4647 C   0  0  1  0  0  0  0  0  0  0  0  0
    1.2979    0.0026    1.2958 C   0  0  0  0  0  0  0  0  0  0  0  0
    0.1672    0.2219    0.3799 N   0  0  0  0  0  0  0  0  0  0  0  0
   -0.9986   -0.5191    0.8431 C   0  0  0  0  0  0  0  0  0  0  0  0
   -2.1908   -0.0558    0.0599 C   0  0  1  0  0  0  0  0  0  0  0  0
   -2.0746   -0.2572   -1.2952 O   0  0  0  0  0  0  0  0  0  0  0  0
   -3.4976   -0.6748    0.5208 C   0  0  0  0  0  0  0  0  0  0  0  0
   -4.5915   -0.0049   -0.1789 N   0  0  0  0  0  0  0  0  0  0  0  0
    0.6737   -0.3752   -0.8692 C   0  0  0  0  0  0  0  0  0  0  0  0
    2.0414    0.2924   -0.9355 C   0  0  2  0  0  0  0  0  0  0  0  0
    2.8517   -0.3099   -1.8893 O   0  0  0  0  0  0  0  0  0  0  0  0
    4.1025    1.4167    0.0065 H   0  0  0  0  0  0  0  0  0  0  0  0
    2.8807    2.0803    1.2302 H   0  0  0  0  0  0  0  0  0  0  0  0
    4.1171    0.8039    1.6957 H   0  0  0  0  0  0  0  0  0  0  0  0
    3.1175   -0.8783    0.4549 H   0  0  0  0  0  0  0  0  0  0  0  0
    1.3378    0.8920    1.9980 H   0  0  0  0  0  0  0  0  0  0  0  0
    1.2293   -0.9437    1.8430 H   0  0  0  0  0  0  0  0  0  0  0  0
   -0.8757   -1.6098    0.6519 H   0  0  0  0  0  0  0  0  0  0  0  0
   -1.1409   -0.4045    1.9264 H   0  0  0  0  0  0  0  0  0  0  0  0
   -2.2701    1.0668    0.1948 H   0  0  0  0  0  0  0  0  0  0  0  0
   -2.3442   -1.1616   -1.5808 H   0  0  0  0  0  0  0  0  0  0  0  0
   -3.5626   -0.5481    1.6054 H   0  0  0  0  0  0  0  0  0  0  0  0
   -3.4777   -1.7595    0.2590 H   0  0  0  0  0  0  0  0  0  0  0  0
   -4.8980    0.8143    0.4204 H   0  0  0  0  0  0  0  0  0  0  0  0
   -4.2112    0.3990   -1.0530 H   0  0  0  0  0  0  0  0  0  0  0  0
    0.8171   -1.4727   -0.7508 H   0  0  0  0  0  0  0  0  0  0  0  0
    0.1000   -0.0486   -1.7286 H   0  0  0  0  0  0  0  0  0  0  0  0
    1.8752    1.3660   -1.1517 H   0  0  0  0  0  0  0  0  0  0  0  0
    3.5155    0.3932   -2.1817 H   0  0  0  0  0  0  0  0  0  0  0  0
  1  2  1  0
  2  3  1  0
  3  4  1  0
  4  5  1  0
  5  6  1  0
  6  7  1  0
  6  8  1  0
  8  9  1  0
  4 10  1  0
 10 11  1  0
 11 12  1  0
 11  2  1  0
  1 13  1  0
  1 14  1  0
  1 15  1  0
  2 16  1  6
  3 17  1  0
  3 18  1  0
  5 19  1  0
  5 20  1  0
  6 21  1  6
  7 22  1  0
  8 23  1  0
  8 24  1  0
  9 25  1  0
  9 26  1  0
 10 27  1  0
 10 28  1  0
 11 29  1  6
 12 30  1  0
M  END
$$$$

     RDKit          3D

 30 30  0  0  0  0  0  0  0  0999 V2000
    3.0734   -1.2023   -0.8888 C   0  0  0  0  0  0  0  0  0  0  0  0
    2.5626    0.0438   -0.2435 C   0  0  1  0  0  0  0  0  0  0  0  0
    1.3520    0.6291   -0.8915 C   0  0  0  0  0  0  0  0  0  0  0  0
    0.1936   -0.1097   -0.3747 N   0  0  0  0  0  0  0  0  0  0  0  0
   -0.7867    0.8266    0.0969 C   0  0  0  0  0  0  0  0  0  0  0  0
   -2.1268    0.2200    0.4256 C   0  0  1  0  0  0  0  0  0  0  0  0
   -2.9483    1.2599    0.9066 O   0  0  0  0  0  0  0  0  0  0  0  0
   -2.8262   -0.2890   -0.8099 C   0  0  0  0  0  0  0  0  0  0  0  0
   -4.1480   -0.7255   -0.4234 N   0  0  0  0  0  0  0  0  0  0  0  0
    0.6598   -0.8252    0.8107 C   0  0  0  0  0  0  0  0  0  0  0  0
    2.0157   -0.2548    1.1482 C   0  0  2  0  0  0  0  0  0  0  0  0
    1.9169    0.9678    1.8176 O   0  0  0  0  0  0  0  0  0  0  0  0
    3.9627   -1.5418   -0.2793 H   0  0  0  0  0  0  0  0  0  0  0  0
    3.4659   -0.9573   -1.8945 H   0  0  0  0  0  0  0  0  0  0  0  0
    2.2827   -1.9725   -0.9422 H   0  0  0  0  0  0  0  0  0  0  0  0
    3.4036    0.7704   -0.1989 H   0  0  0  0  0  0  0  0  0  0  0  0
    1.3570    0.5560   -2.0057 H   0  0  0  0  0  0  0  0  0  0  0  0
    1.2741    1.7041   -0.5898 H   0  0  0  0  0  0  0  0  0  0  0  0
   -0.4482    1.3066    1.0667 H   0  0  0  0  0  0  0  0  0  0  0  0
   -0.9101    1.6587   -0.6067 H   0  0  0  0  0  0  0  0  0  0  0  0
   -2.1042   -0.5708    1.1760 H   0  0  0  0  0  0  0  0  0  0  0  0
   -3.0060    1.9448    0.1663 H   0  0  0  0  0  0  0  0  0  0  0  0
   -2.9630    0.5254   -1.5741 H   0  0  0  0  0  0  0  0  0  0  0  0
   -2.3054   -1.1644   -1.2753 H   0  0  0  0  0  0  0  0  0  0  0  0
   -4.7995    0.0928   -0.5127 H   0  0  0  0  0  0  0  0  0  0  0  0
   -4.1426   -0.9986    0.5825 H   0  0  0  0  0  0  0  0  0  0  0  0
    0.7912   -1.8868    0.5694 H   0  0  0  0  0  0  0  0  0  0  0  0
   -0.0201   -0.6713    1.6718 H   0  0  0  0  0  0  0  0  0  0  0  0
    2.6874   -0.9698    1.6739 H   0  0  0  0  0  0  0  0  0  0  0  0
    2.5364    1.6338    1.3987 H   0  0  0  0  0  0  0  0  0  0  0  0
  1  2  1  0
  2  3  1  0
  3  4  1  0
  4  5  1  0
  5  6  1  0
  6  7  1  0
  6  8  1  0
  8  9  1  0
  4 10  1  0
 10 11  1  0
 11 12  1  0
 11  2  1  0
  1 13  1  0
  1 14  1  0
  1 15  1  0
  2 16  1  1
  3 17  1  0
  3 18  1  0
  5 19  1  0
  5 20  1  0
  6 21  1  1
  7 22  1  0
  8 23  1  0
  8 24  1  0
  9 25  1  0
  9 26  1  0
 10 27  1  0
 10 28  1  0
 11 29  1  1
 12 30  1  0
M  END
$$$$

     RDKit          3D

 30 30  0  0  0  0  0  0  0  0999 V2000
   -2.9431    1.0930    0.4548 C   0  0  0  0  0  0  0  0  0  0  0  0
   -2.3115    0.1198   -0.5160 C   0  0  1  0  0  0  0  0  0  0  0  0
   -0.8487    0.5213   -0.7162 C   0  0  0  0  0  0  0  0  0  0  0  0
   -0.1237   -0.1701    0.2732 N   0  0  0  0  0  0  0  0  0  0  0  0
    0.8546    0.5043    1.0185 C   0  0  0  0  0  0  0  0  0  0  0  0
    2.0701    0.8243    0.1618 C   0  0  1  0  0  0  0  0  0  0  0  0
    2.9859    1.4999    0.9866 O   0  0  0  0  0  0  0  0  0  0  0  0
    2.7412   -0.5001   -0.2263 C   0  0  0  0  0  0  0  0  0  0  0  0
    3.9666   -0.3511   -0.9130 N   0  0  0  0  0  0  0  0  0  0  0  0
   -0.8970   -1.1718    0.9042 C   0  0  0  0  0  0  0  0  0  0  0  0
   -2.2346   -1.2296    0.1796 C   0  0  2  0  0  0  0  0  0  0  0  0
   -2.2009   -2.2735   -0.7175 O   0  0  0  0  0  0  0  0  0  0  0  0
   -2.2410    1.1664    1.3327 H   0  0  0  0  0  0  0  0  0  0  0  0
   -3.1024    2.0699   -0.0176 H   0  0  0  0  0  0  0  0  0  0  0  0
   -3.8965    0.6446    0.8298 H   0  0  0  0  0  0  0  0  0  0  0  0
   -2.8740    0.0443   -1.4495 H   0  0  0  0  0  0  0  0  0  0  0  0
   -0.7620    1.6364   -0.6910 H   0  0  0  0  0  0  0  0  0  0  0  0
   -0.5506    0.1924   -1.7369 H   0  0  0  0  0  0  0  0  0  0  0  0
    1.2289   -0.1849    1.8255 H   0  0  0  0  0  0  0  0  0  0  0  0
    0.5232    1.4410    1.5281 H   0  0  0  0  0  0  0  0  0  0  0  0
    1.8438    1.3981   -0.7255 H   0  0  0  0  0  0  0  0  0  0  0  0
    2.4564    2.0628    1.5989 H   0  0  0  0  0  0  0  0  0  0  0  0
    2.9536   -1.0619    0.7351 H   0  0  0  0  0  0  0  0  0  0  0  0
    2.0530   -1.1079   -0.8440 H   0  0  0  0  0  0  0  0  0  0  0  0
    3.9687   -0.2663   -1.9214 H   0  0  0  0  0  0  0  0  0  0  0  0
    4.7744   -0.0397   -0.3715 H   0  0  0  0  0  0  0  0  0  0  0  0
   -0.3465   -2.1510    0.7327 H   0  0  0  0  0  0  0  0  0  0  0  0
   -1.0109   -1.0364    1.9976 H   0  0  0  0  0  0  0  0  0  0  0  0
   -3.0301   -1.3182    0.9309 H   0  0  0  0  0  0  0  0  0  0  0  0
   -3.0469   -2.3561   -1.2113 H   0  0  0  0  0  0  0  0  0  0  0  0
  1  2  1  0
  2  3  1  0
  3  4  1  0
  4  5  1  0
  5  6  1  0
  6  7  1  0
  6  8  1  0
  8  9  1  0
  4 10  1  0
 10 11  1  0
 11 12  1  0
 11  2  1  0
  1 13  1  0
  1 14  1  0
  1 15  1  0
  2 16  1  6
  3 17  1  0
  3 18  1  0
  5 19  1  0
  5 20  1  0
  6 21  1  6
  7 22  1  0
  8 23  1  0
  8 24  1  0
  9 25  1  0
  9 26  1  0
 10 27  1  0
 10 28  1  0
 11 29  1  1
 12 30  1  0
M  END
$$$$
