
     RDKit          3D

 29 29  0  0  0  0  0  0  0  0999 V2000
   -0.9278    1.2164    1.3456 N   0  0  0  0  0  0  0  0  0  0  0  0
   -1.3865    0.7008    0.0687 C   0  0  2  0  0  0  0  0  0  0  0  0
   -2.7367    0.0534    0.1891 C   0  0  0  0  0  0  0  0  0  0  0  0
   -2.7338   -0.9878   -0.8991 C   0  0  0  0  0  0  0  0  0  0  0  0
   -1.3101   -1.5186   -0.7788 C   0  0  0  0  0  0  0  0  0  0  0  0
   -0.4735   -0.2461   -0.5871 C   0  0  2  0  0  0  0  0  0  0  0  0
    0.8311   -0.5333    0.0433 C   0  0  2  0  0  0  0  0  0  0  0  0
    0.7855   -1.0566    1.3214 O   0  0  0  0  0  0  0  0  0  0  0  0
    1.8316    0.5817   -0.1345 C   0  0  1  0  0  0  0  0  0  0  0  0
    1.6176    1.7221    0.7025 N   0  0  0  0  0  0  0  0  0  0  0  0
    3.2162    0.0256    0.0297 C   0  0  0  0  0  0  0  0  0  0  0  0
    4.0338    0.5482    0.8228 O   0  0  0  0  0  0  0  0  0  0  0  0
    3.6310   -1.0832   -0.6919 O   0  0  0  0  0  0  0  0  0  0  0  0
   -1.2283    0.6155    2.1524 H   0  0  0  0  0  0  0  0  0  0  0  0
   -1.4464    2.1311    1.4885 H   0  0  0  0  0  0  0  0  0  0  0  0
   -1.5322    1.5916   -0.6136 H   0  0  0  0  0  0  0  0  0  0  0  0
   -2.8415   -0.3951    1.2019 H   0  0  0  0  0  0  0  0  0  0  0  0
   -3.5458    0.8201    0.0153 H   0  0  0  0  0  0  0  0  0  0  0  0
   -3.4809   -1.7635   -0.7220 H   0  0  0  0  0  0  0  0  0  0  0  0
   -2.8113   -0.4766   -1.8628 H   0  0  0  0  0  0  0  0  0  0  0  0
   -1.2593   -2.1026    0.1479 H   0  0  0  0  0  0  0  0  0  0  0  0
   -0.9930   -2.0765   -1.6755 H   0  0  0  0  0  0  0  0  0  0  0  0
   -0.2449    0.0781   -1.6518 H   0  0  0  0  0  0  0  0  0  0  0  0
    1.2822   -1.3912   -0.5759 H   0  0  0  0  0  0  0  0  0  0  0  0
    1.1723   -0.4391    2.0084 H   0  0  0  0  0  0  0  0  0  0  0  0
    1.7885    0.9016   -1.2138 H   0  0  0  0  0  0  0  0  0  0  0  0
    1.7887    2.6012    0.1576 H   0  0  0  0  0  0  0  0  0  0  0  0
    2.3645    1.7066    1.4518 H   0  0  0  0  0  0  0  0  0  0  0  0
    4.6091   -1.2236   -0.9654 H   0  0  0  0  0  0  0  0  0  0  0  0
  1  2  1  0
  2  3  1  0
  3  4  1  0
  4  5  1  0
  5  6  1  0
  6  7  1  0
  7  8  1  0
  7  9  1  0
  9 10  1  0
  9 11  1  0
 11 12  2  0
 11 13  1  0
  6  2  1  0
  1 14  1  0
  1 15  1  0
  2 16  1  6
  3 17  1  0
  3 18  1  0
  4 19  1  0
  4 20  1  0
  5 21  1  0
  5 22  1  0
  6 23  1  6
  7 24  1  6
  8 25  1  0
  9 26  1  6
 10 27  1  0
 10 28  1  0
 13 29  1  0
M  END
$$$$

     RDKit          3D

 29 29  0  0  0  0  0  0  0  0999 V2000
   -0.5648    1.2488   -1.2427 N   0  0  0  0  0  0  0  0  0  0  0  0
   -0.8937   -0.0592   -0.9195 C   0  0  2  0  0  0  0  0  0  0  0  0
   -2.4274   -0.1305   -0.7949 C   0  0  0  0  0  0  0  0  0  0  0  0
   -2.5713    0.3096    0.6685 C   0  0  0  0  0  0  0  0  0  0  0  0
   -1.6268   -0.6838    1.3112 C   0  0  0  0  0  0  0  0  0  0  0  0
   -0.4510   -0.6393    0.3526 C   0  0  2  0  0  0  0  0  0  0  0  0
    0.7160   -0.0388    1.0503 C   0  0  2  0  0  0  0  0  0  0  0  0
    0.6215    1.2555    1.4156 O   0  0  0  0  0  0  0  0  0  0  0  0
    2.0487   -0.4166    0.4072 C   0  0  1  0  0  0  0  0  0  0  0  0
    2.0602   -1.8208    0.0461 N   0  0  0  0  0  0  0  0  0  0  0  0
    2.4032    0.4113   -0.7378 C   0  0  0  0  0  0  0  0  0  0  0  0
    2.6596   -0.1444   -1.8510 O   0  0  0  0  0  0  0  0  0  0  0  0
    2.4982    1.7878   -0.7595 O   0  0  0  0  0  0  0  0  0  0  0  0
    0.0270    1.4339   -2.0614 H   0  0  0  0  0  0  0  0  0  0  0  0
   -1.1924    2.0106   -0.9545 H   0  0  0  0  0  0  0  0  0  0  0  0
   -0.6720   -0.7263   -1.7970 H   0  0  0  0  0  0  0  0  0  0  0  0
   -2.7804   -1.1732   -0.8322 H   0  0  0  0  0  0  0  0  0  0  0  0
   -2.9201    0.5545   -1.4848 H   0  0  0  0  0  0  0  0  0  0  0  0
   -3.5990    0.2334    1.0186 H   0  0  0  0  0  0  0  0  0  0  0  0
   -2.1114    1.3093    0.7911 H   0  0  0  0  0  0  0  0  0  0  0  0
   -2.0798   -1.6947    1.3840 H   0  0  0  0  0  0  0  0  0  0  0  0
   -1.3241   -0.3253    2.3193 H   0  0  0  0  0  0  0  0  0  0  0  0
   -0.1851   -1.7248    0.1667 H   0  0  0  0  0  0  0  0  0  0  0  0
    0.7418   -0.5864    2.0502 H   0  0  0  0  0  0  0  0  0  0  0  0
    0.5425    1.9356    0.7489 H   0  0  0  0  0  0  0  0  0  0  0  0
    2.8787   -0.2979    1.1642 H   0  0  0  0  0  0  0  0  0  0  0  0
    2.9395   -2.3007    0.3284 H   0  0  0  0  0  0  0  0  0  0  0  0
    2.0220   -1.9242   -1.0122 H   0  0  0  0  0  0  0  0  0  0  0  0
    3.2401    2.1965   -1.3152 H   0  0  0  0  0  0  0  0  0  0  0  0
  1  2  1  0
  2  3  1  0
  3  4  1  0
  4  5  1  0
  5  6  1  0
  6  7  1  0
  7  8  1  0
  7  9  1  0
  9 10  1  0
  9 11  1  0
 11 12  2  0
 11 13  1  0
  6  2  1  0
  1 14  1  0
  1 15  1  0
  2 16  1  6
  3 17  1  0
  3 18  1  0
  4 19  1  0
  4 20  1  0
  5 21  1  0
  5 22  1  0
  6 23  1  6
  7 24  1  1
  8 25  1  0
  9 26  1  1
 10 27  1  0
 10 28  1  0
 13 29  1  0
M  END
$$$$

     RDKit          3D

 29 29  0  0  0  0  0  0  0  0999 V2000
   -1.4098   -1.3260   -1.1738 N   0  0  0  0  0  0  0  0  0  0  0  0
   -1.6801   -0.7607    0.1239 C   0  0  2  0  0  0  0  0  0  0  0  0
   -2.8010    0.2442    0.0922 C   0  0  0  0  0  0  0  0  0  0  0  0
   -2.1735    1.5941    0.3181 C   0  0  0  0  0  0  0  0  0  0  0  0
   -0.7308    1.3383   -0.1786 C   0  0  0  0  0  0  0  0  0  0  0  0
   -0.4090    0.0540    0.5085 C   0  0  2  0  0  0  0  0  0  0  0  0
    0.7202   -0.7463   -0.0374 C   0  0  2  0  0  0  0  0  0  0  0  0
    0.5586   -2.0266    0.6319 O   0  0  0  0  0  0  0  0  0  0  0  0
    2.1118   -0.3331    0.3688 C   0  0  1  0  0  0  0  0  0  0  0  0
    2.9607   -1.4800   -0.1106 N   0  0  0  0  0  0  0  0  0  0  0  0
    2.6206    0.8172   -0.3937 C   0  0  0  0  0  0  0  0  0  0  0  0
    3.2639    0.6178   -1.4627 O   0  0  0  0  0  0  0  0  0  0  0  0
    2.4596    2.1374   -0.0353 O   0  0  0  0  0  0  0  0  0  0  0  0
   -2.0185   -2.1380   -1.4082 H   0  0  0  0  0  0  0  0  0  0  0  0
   -1.4319   -0.5737   -1.8707 H   0  0  0  0  0  0  0  0  0  0  0  0
   -1.8095   -1.5357    0.9018 H   0  0  0  0  0  0  0  0  0  0  0  0
   -3.3747    0.2044   -0.8621 H   0  0  0  0  0  0  0  0  0  0  0  0
   -3.5091   -0.0106    0.9315 H   0  0  0  0  0  0  0  0  0  0  0  0
   -2.1036    1.8302    1.3980 H   0  0  0  0  0  0  0  0  0  0  0  0
   -2.6211    2.3868   -0.2908 H   0  0  0  0  0  0  0  0  0  0  0  0
   -0.1100    2.2057    0.1288 H   0  0  0  0  0  0  0  0  0  0  0  0
   -0.7947    1.2703   -1.2708 H   0  0  0  0  0  0  0  0  0  0  0  0
   -0.3821    0.2058    1.5844 H   0  0  0  0  0  0  0  0  0  0  0  0
    0.5878   -0.9142   -1.1047 H   0  0  0  0  0  0  0  0  0  0  0  0
    0.5761   -1.7542    1.6024 H   0  0  0  0  0  0  0  0  0  0  0  0
    2.2448   -0.2748    1.4470 H   0  0  0  0  0  0  0  0  0  0  0  0
    3.7786   -1.5631    0.5355 H   0  0  0  0  0  0  0  0  0  0  0  0
    2.4213   -2.3633   -0.0266 H   0  0  0  0  0  0  0  0  0  0  0  0
    3.0552    2.8943   -0.3468 H   0  0  0  0  0  0  0  0  0  0  0  0
  1  2  1  0
  2  3  1  0
  3  4  1  0
  4  5  1  0
  5  6  1  0
  6  7  1  0
  7  8  1  0
  7  9  1  0
  9 10  1  0
  9 11  1  0
 11 12  2  0
 11 13  1  0
  6  2  1  0
  1 14  1  0
  1 15  1  0
  2 16  1  1
  3 17  1  0
  3 18  1  0
  4 19  1  0
  4 20  1  0
  5 21  1  0
  5 22  1  0
  6 23  1  1
  7 24  1  6
  8 25  1  0
  9 26  1  1
 10 27  1  0
 10 28  1  0
 13 29  1  0
M  END
$$$$

     RDKit          3D

 29 29  0  0  0  0  0  0  0  0999 V2000
   -0.7348   -1.0487   -1.4551 N   0  0  0  0  0  0  0  0  0  0  0  0
   -0.8640   -0.7282   -0.0518 C   0  0  2  0  0  0  0  0  0  0  0  0
   -2.3513   -0.6234    0.2527 C   0  0  0  0  0  0  0  0  0  0  0  0
   -2.6960    0.8487    0.1637 C   0  0  0  0  0  0  0  0  0  0  0  0
   -1.3889    1.6110    0.1088 C   0  0  0  0  0  0  0  0  0  0  0  0
   -0.3014    0.5930    0.3409 C   0  0  2  0  0  0  0  0  0  0  0  0
    0.9869    0.9737   -0.3178 C   0  0  2  0  0  0  0  0  0  0  0  0
    0.9000    1.0423   -1.6808 O   0  0  0  0  0  0  0  0  0  0  0  0
    2.1582    0.1918    0.2150 C   0  0  1  0  0  0  0  0  0  0  0  0
    2.0542    0.2497    1.6839 N   0  0  0  0  0  0  0  0  0  0  0  0
    2.2353   -1.1982   -0.2477 C   0  0  0  0  0  0  0  0  0  0  0  0
    2.3672   -1.5379   -1.4480 O   0  0  0  0  0  0  0  0  0  0  0  0
    2.1640   -2.2788    0.6565 O   0  0  0  0  0  0  0  0  0  0  0  0
   -0.7250   -2.0775   -1.6036 H   0  0  0  0  0  0  0  0  0  0  0  0
   -1.4916   -0.5815   -1.9786 H   0  0  0  0  0  0  0  0  0  0  0  0
   -0.4824   -1.5500    0.5829 H   0  0  0  0  0  0  0  0  0  0  0  0
   -2.6024   -1.0145    1.2521 H   0  0  0  0  0  0  0  0  0  0  0  0
   -2.9252   -1.2123   -0.4835 H   0  0  0  0  0  0  0  0  0  0  0  0
   -3.2457    1.1392    1.0738 H   0  0  0  0  0  0  0  0  0  0  0  0
   -3.3169    1.0858   -0.7065 H   0  0  0  0  0  0  0  0  0  0  0  0
   -1.2170    2.0822   -0.8726 H   0  0  0  0  0  0  0  0  0  0  0  0
   -1.3777    2.4064    0.8661 H   0  0  0  0  0  0  0  0  0  0  0  0
   -0.1483    0.5626    1.4581 H   0  0  0  0  0  0  0  0  0  0  0  0
    1.1948    2.0459    0.0130 H   0  0  0  0  0  0  0  0  0  0  0  0
    1.1066    0.2513   -2.1935 H   0  0  0  0  0  0  0  0  0  0  0  0
    3.1228    0.6826   -0.0215 H   0  0  0  0  0  0  0  0  0  0  0  0
    2.9652   -0.0831    2.0659 H   0  0  0  0  0  0  0  0  0  0  0  0
    1.9107    1.2737    1.8957 H   0  0  0  0  0  0  0  0  0  0  0  0
    2.7028   -3.1059    0.4318 H   0  0  0  0  0  0  0  0  0  0  0  0
  1  2  1  0
  2  3  1  0
  3  4  1  0
  4  5  1  0
  5  6  1  0
  6  7  1  0
  7  8  1  0
  7  9  1  0
  9 10  1  0
  9 11  1  0
 11 12  2  0
 11 13  1  0
  6  2  1  0
  1 14  1  0
  1 15  1  0
  2 16  1  1
  3 17  1  0
  3 18  1  0
  4 19  1  0
  4 20  1  0
  5 21  1  0
  5 22  1  0
  6 23  1  1
  7 24  1  1
  8 25  1  0
  9 26  1  1
 10 27  1  0
 10 28  1  0
 13 29  1  0
M  END
$$$$

     RDKit          3D

 29 29  0  0  0  0  0  0  0  0999 V2000
   -1.8356    1.7438   -0.4610 N   0  0  0  0  0  0  0  0  0  0  0  0
   -1.7447    0.3159   -0.6469 C   0  0  2  0  0  0  0  0  0  0  0  0
   -2.4448   -0.3627    0.5023 C   0  0  0  0  0  0  0  0  0  0  0  0
   -1.9043   -1.7791    0.3264 C   0  0  0  0  0  0  0  0  0  0  0  0
   -0.4263   -1.5118    0.0335 C   0  0  0  0  0  0  0  0  0  0  0  0
   -0.3148   -0.1806   -0.6242 C   0  0  2  0  0  0  0  0  0  0  0  0
    0.5977    0.7848    0.0457 C   0  0  2  0  0  0  0  0  0  0  0  0
    0.4727    2.0324   -0.6720 O   0  0  0  0  0  0  0  0  0  0  0  0
    2.0735    0.5111   -0.0555 C   0  0  1  0  0  0  0  0  0  0  0  0
    2.7868    1.6454    0.6038 N   0  0  0  0  0  0  0  0  0  0  0  0
    2.5520   -0.6934    0.6155 C   0  0  0  0  0  0  0  0  0  0  0  0
    3.0404   -0.6197    1.7630 O   0  0  0  0  0  0  0  0  0  0  0  0
    2.4823   -1.9199    0.0053 O   0  0  0  0  0  0  0  0  0  0  0  0
   -1.9079    2.2686   -1.3631 H   0  0  0  0  0  0  0  0  0  0  0  0
   -2.7113    1.9299    0.0770 H   0  0  0  0  0  0  0  0  0  0  0  0
   -2.2065   -0.0296   -1.5795 H   0  0  0  0  0  0  0  0  0  0  0  0
   -3.5393   -0.3589    0.4006 H   0  0  0  0  0  0  0  0  0  0  0  0
   -2.1552    0.0602    1.4803 H   0  0  0  0  0  0  0  0  0  0  0  0
   -2.0686   -2.3652    1.2267 H   0  0  0  0  0  0  0  0  0  0  0  0
   -2.4110   -2.2475   -0.5355 H   0  0  0  0  0  0  0  0  0  0  0  0
    0.0633   -1.6137    1.0147 H   0  0  0  0  0  0  0  0  0  0  0  0
   -0.1021   -2.3548   -0.5991 H   0  0  0  0  0  0  0  0  0  0  0  0
    0.0157   -0.3228   -1.6708 H   0  0  0  0  0  0  0  0  0  0  0  0
    0.3165    1.0154    1.0798 H   0  0  0  0  0  0  0  0  0  0  0  0
    0.9098    1.8657   -1.5475 H   0  0  0  0  0  0  0  0  0  0  0  0
    2.3947    0.5906   -1.1196 H   0  0  0  0  0  0  0  0  0  0  0  0
    2.8240    2.4558   -0.0340 H   0  0  0  0  0  0  0  0  0  0  0  0
    2.1875    1.8332    1.4572 H   0  0  0  0  0  0  0  0  0  0  0  0
    3.0554   -2.6930    0.2768 H   0  0  0  0  0  0  0  0  0  0  0  0
  1  2  1  0
  2  3  1  0
  3  4  1  0
  4  5  1  0
  5  6  1  0
  6  7  1  0
  7  8  1  0
  7  9  1  0
  9 10  1  0
  9 11  1  0
 11 12  2  0
 11 13  1  0
  6  2  1  0
  1 14  1  0
  1 15  1  0
  2 16  1  6
  3 17  1  0
  3 18  1  0
  4 19  1  0
  4 20  1  0
  5 21  1  0
  5 22  1  0
  6 23  1  6
  7 24  1  1
  8 25  1  0
  9 26  1  6
 10 27  1  0
 10 28  1  0
 13 29  1  0
M  END
$$$$

     RDKit          3D

 29 29  0  0  0  0  0  0  0  0999 V2000
   -1.4534   -1.1451   -1.1770 N   0  0  0  0  0  0  0  0  0  0  0  0
   -1.3272   -0.6817    0.1568 C   0  0  2  0  0  0  0  0  0  0  0  0
   -2.6716   -0.1445    0.6076 C   0  0  0  0  0  0  0  0  0  0  0  0
   -2.4277    1.2855    1.0399 C   0  0  0  0  0  0  0  0  0  0  0  0
   -1.2149    1.6461    0.1865 C   0  0  0  0  0  0  0  0  0  0  0  0
   -0.3620    0.4058    0.3896 C   0  0  2  0  0  0  0  0  0  0  0  0
    0.8043    0.4667   -0.5364 C   0  0  2  0  0  0  0  0  0  0  0  0
    0.3963    0.6382   -1.8820 O   0  0  0  0  0  0  0  0  0  0  0  0
    1.7642   -0.6829   -0.4383 C   0  0  1  0  0  0  0  0  0  0  0  0
    2.8977   -0.3270   -1.2950 N   0  0  0  0  0  0  0  0  0  0  0  0
    2.2777   -0.8821    0.9274 C   0  0  0  0  0  0  0  0  0  0  0  0
    1.5198   -1.2346    1.8700 O   0  0  0  0  0  0  0  0  0  0  0  0
    3.6055   -0.6867    1.2081 O   0  0  0  0  0  0  0  0  0  0  0  0
   -1.3028   -2.1447   -1.3302 H   0  0  0  0  0  0  0  0  0  0  0  0
   -2.1024   -0.6630   -1.7852 H   0  0  0  0  0  0  0  0  0  0  0  0
   -1.0796   -1.5316    0.8443 H   0  0  0  0  0  0  0  0  0  0  0  0
   -3.1458   -0.7600    1.3745 H   0  0  0  0  0  0  0  0  0  0  0  0
   -3.3887   -0.0820   -0.2605 H   0  0  0  0  0  0  0  0  0  0  0  0
   -3.2839    1.9482    0.8483 H   0  0  0  0  0  0  0  0  0  0  0  0
   -2.1100    1.2648    2.0982 H   0  0  0  0  0  0  0  0  0  0  0  0
   -0.6776    2.5111    0.6173 H   0  0  0  0  0  0  0  0  0  0  0  0
   -1.5134    1.7870   -0.8544 H   0  0  0  0  0  0  0  0  0  0  0  0
   -0.0143    0.4429    1.4303 H   0  0  0  0  0  0  0  0  0  0  0  0
    1.3758    1.3872   -0.2950 H   0  0  0  0  0  0  0  0  0  0  0  0
    1.2062    0.9810   -2.3722 H   0  0  0  0  0  0  0  0  0  0  0  0
    1.3422   -1.6400   -0.7924 H   0  0  0  0  0  0  0  0  0  0  0  0
    3.1723   -1.1238   -1.9020 H   0  0  0  0  0  0  0  0  0  0  0  0
    3.7045    0.0007   -0.7559 H   0  0  0  0  0  0  0  0  0  0  0  0
    4.0087   -1.0356    2.0778 H   0  0  0  0  0  0  0  0  0  0  0  0
  1  2  1  0
  2  3  1  0
  3  4  1  0
  4  5  1  0
  5  6  1  0
  6  7  1  0
  7  8  1  0
  7  9  1  0
  9 10  1  0
  9 11  1  0
 11 12  2  0
 11 13  1  0
  6  2  1  0
  1 14  1  0
  1 15  1  0
  2 16  1  1
  3 17  1  0
  3 18  1  0
  4 19  1  0
  4 20  1  0
  5 21  1  0
  5 22  1  0
  6 23  1  1
  7 24  1  1
  8 25  1  0
  9 26  1  6
 10 27  1  0
 10 28  1  0
 13 29  1  0
M  END
$$$$

     RDKit          3D

 29 29  0  0  0  0  0  0  0  0999 V2000
    1.3551    1.5252    0.6760 N   0  0  0  0  0  0  0  0  0  0  0  0
    0.8078    0.2226    1.0171 C   0  0  2  0  0  0  0  0  0  0  0  0
    2.0033   -0.6815    1.3258 C   0  0  0  0  0  0  0  0  0  0  0  0
    2.5890   -0.9237   -0.0304 C   0  0  0  0  0  0  0  0  0  0  0  0
    1.5654   -0.5098   -1.0545 C   0  0  0  0  0  0  0  0  0  0  0  0
    0.2903   -0.4911   -0.2210 C   0  0  2  0  0  0  0  0  0  0  0  0
   -0.7450    0.2646   -0.9569 C   0  0  2  0  0  0  0  0  0  0  0  0
   -0.2181    1.5027   -1.3861 O   0  0  0  0  0  0  0  0  0  0  0  0
   -2.0380    0.4778   -0.2049 C   0  0  1  0  0  0  0  0  0  0  0  0
   -3.0136    1.1385   -1.0904 N   0  0  0  0  0  0  0  0  0  0  0  0
   -2.6560   -0.7329    0.3166 C   0  0  0  0  0  0  0  0  0  0  0  0
   -3.8064   -1.0845   -0.0408 O   0  0  0  0  0  0  0  0  0  0  0  0
   -1.9958   -1.5404    1.2274 O   0  0  0  0  0  0  0  0  0  0  0  0
    2.3696    1.4631    0.3948 H   0  0  0  0  0  0  0  0  0  0  0  0
    1.2680    2.1951    1.4928 H   0  0  0  0  0  0  0  0  0  0  0  0
    0.0837    0.2526    1.8327 H   0  0  0  0  0  0  0  0  0  0  0  0
    1.5411   -1.6505    1.6754 H   0  0  0  0  0  0  0  0  0  0  0  0
    2.6862   -0.2438    2.0493 H   0  0  0  0  0  0  0  0  0  0  0  0
    2.8118   -2.0015   -0.2063 H   0  0  0  0  0  0  0  0  0  0  0  0
    3.5293   -0.3702   -0.1249 H   0  0  0  0  0  0  0  0  0  0  0  0
    1.7769    0.5340   -1.3441 H   0  0  0  0  0  0  0  0  0  0  0  0
    1.4544   -1.2092   -1.8794 H   0  0  0  0  0  0  0  0  0  0  0  0
   -0.0137   -1.4997    0.0463 H   0  0  0  0  0  0  0  0  0  0  0  0
   -0.9929   -0.2914   -1.8839 H   0  0  0  0  0  0  0  0  0  0  0  0
   -0.4512    2.1953   -0.7215 H   0  0  0  0  0  0  0  0  0  0  0  0
   -1.8188    1.2482    0.5861 H   0  0  0  0  0  0  0  0  0  0  0  0
   -2.5829    1.9617   -1.5650 H   0  0  0  0  0  0  0  0  0  0  0  0
   -3.3484    0.4222   -1.7984 H   0  0  0  0  0  0  0  0  0  0  0  0
   -2.4510   -2.1733    1.8681 H   0  0  0  0  0  0  0  0  0  0  0  0
  1  2  1  0
  2  3  1  0
  3  4  1  0
  4  5  1  0
  5  6  1  0
  6  7  1  0
  7  8  1  0
  7  9  1  0
  9 10  1  0
  9 11  1  0
 11 12  2  0
 11 13  1  0
  6  2  1  0
  1 14  1  0
  1 15  1  0
  2 16  1  1
  3 17  1  0
  3 18  1  0
  4 19  1  0
  4 20  1  0
  5 21  1  0
  5 22  1  0
  6 23  1  1
  7 24  1  6
  8 25  1  0
  9 26  1  1
 10 27  1  0
 10 28  1  0
 13 29  1  0
M  END
$$$$

     RDKit          3D

 29 29  0  0  0  0  0  0  0  0999 V2000
   -1.7895    0.6303    1.5349 N   0  0  0  0  0  0  0  0  0  0  0  0
   -1.5737    0.8328    0.1381 C   0  0  2  0  0  0  0  0  0  0  0  0
   -2.7566    0.1540   -0.5710 C   0  0  0  0  0  0  0  0  0  0  0  0
   -2.4409   -1.3134   -0.3800 C   0  0  0  0  0  0  0  0  0  0  0  0
   -0.9803   -1.3921    0.0162 C   0  0  0  0  0  0  0  0  0  0  0  0
   -0.4653   -0.0520   -0.3663 C   0  0  2  0  0  0  0  0  0  0  0  0
    0.8203    0.3494    0.2724 C   0  0  2  0  0  0  0  0  0  0  0  0
    1.0509    1.6959   -0.0862 O   0  0  0  0  0  0  0  0  0  0  0  0
    2.0050   -0.4329   -0.1999 C   0  0  1  0  0  0  0  0  0  0  0  0
    2.2059   -0.3524   -1.6328 N   0  0  0  0  0  0  0  0  0  0  0  0
    3.2240    0.1238    0.4563 C   0  0  0  0  0  0  0  0  0  0  0  0
    4.2018    0.5617   -0.2069 O   0  0  0  0  0  0  0  0  0  0  0  0
    3.3451    0.1886    1.8407 O   0  0  0  0  0  0  0  0  0  0  0  0
   -2.7156    0.9637    1.8686 H   0  0  0  0  0  0  0  0  0  0  0  0
   -1.0061    0.8376    2.1509 H   0  0  0  0  0  0  0  0  0  0  0  0
   -1.4740    1.8840   -0.1679 H   0  0  0  0  0  0  0  0  0  0  0  0
   -3.6914    0.4559   -0.0899 H   0  0  0  0  0  0  0  0  0  0  0  0
   -2.6778    0.4645   -1.6302 H   0  0  0  0  0  0  0  0  0  0  0  0
   -2.5662   -1.7987   -1.3757 H   0  0  0  0  0  0  0  0  0  0  0  0
   -3.0986   -1.7751    0.3838 H   0  0  0  0  0  0  0  0  0  0  0  0
   -0.4711   -2.2359   -0.4895 H   0  0  0  0  0  0  0  0  0  0  0  0
   -0.9613   -1.5353    1.1284 H   0  0  0  0  0  0  0  0  0  0  0  0
   -0.3478   -0.0117   -1.4562 H   0  0  0  0  0  0  0  0  0  0  0  0
    0.8088    0.3277    1.3699 H   0  0  0  0  0  0  0  0  0  0  0  0
    0.6537    1.9024   -0.9740 H   0  0  0  0  0  0  0  0  0  0  0  0
    1.9341   -1.5082    0.1233 H   0  0  0  0  0  0  0  0  0  0  0  0
    3.2189   -0.3416   -1.9004 H   0  0  0  0  0  0  0  0  0  0  0  0
    1.7328    0.4391   -2.0784 H   0  0  0  0  0  0  0  0  0  0  0  0
    3.8150    0.9381    2.3219 H   0  0  0  0  0  0  0  0  0  0  0  0
  1  2  1  0
  2  3  1  0
  3  4  1  0
  4  5  1  0
  5  6  1  0
  6  7  1  0
  7  8  1  0
  7  9  1  0
  9 10  1  0
  9 11  1  0
 11 12  2  0
 11 13  1  0
  6  2  1  0
  1 14  1  0
  1 15  1  0
  2 16  1  1
  3 17  1  0
  3 18  1  0
  4 19  1  0
  4 20  1  0
  5 21  1  0
  5 22  1  0
  6 23  1  6
  7 24  1  1
  8 25  1  0
  9 26  1  1
 10 27  1  0
 10 28  1  0
 13 29  1  0
M  END
$$$$
