
     RDKit          3D

 26 27  0  0  0  0  0  0  0  0999 V2000
   -2.2200    0.8927    1.3653 C   0  0  0  0  0  0  0  0  0  0  0  0
   -2.1478   -0.3824    0.5748 C   0  0  1  0  0  0  0  0  0  0  0  0
   -2.8958   -0.3932   -0.7443 C   0  0  1  0  0  0  0  0  0  0  0  0
   -2.7992    0.7856   -1.4619 O   0  0  0  0  0  0  0  0  0  0  0  0
   -1.7170   -1.3067   -1.1326 C   0  0  0  0  0  0  0  0  0  0  0  0
   -0.9342   -0.5127   -0.2243 N   0  0  0  0  0  0  0  0  0  0  0  0
    0.4030   -0.0535   -0.1672 C   0  0  0  0  0  0  0  0  0  0  0  0
    0.8677    1.1917   -0.3178 N   0  0  0  0  0  0  0  0  0  0  0  0
    2.1936    1.1358   -0.1727 C   0  0  0  0  0  0  0  0  0  0  0  0
    3.0351    2.1431   -0.2436 N   0  0  0  0  0  0  0  0  0  0  0  0
    2.5509   -0.1307    0.0665 N   0  0  0  0  0  0  0  0  0  0  0  0
    3.9251   -0.6077    0.2881 C   0  0  0  0  0  0  0  0  0  0  0  0
    1.4478   -0.8526    0.0670 N   0  0  0  0  0  0  0  0  0  0  0  0
   -1.2197    1.3316    1.5483 H   0  0  0  0  0  0  0  0  0  0  0  0
   -2.9062    1.5734    0.8481 H   0  0  0  0  0  0  0  0  0  0  0  0
   -2.6449    0.6613    2.3594 H   0  0  0  0  0  0  0  0  0  0  0  0
   -2.3354   -1.3236    1.1163 H   0  0  0  0  0  0  0  0  0  0  0  0
   -3.8779   -0.8899   -0.7253 H   0  0  0  0  0  0  0  0  0  0  0  0
   -2.1479    1.4256   -1.0745 H   0  0  0  0  0  0  0  0  0  0  0  0
   -1.4547   -1.3236   -2.1871 H   0  0  0  0  0  0  0  0  0  0  0  0
   -1.9097   -2.2963   -0.6548 H   0  0  0  0  0  0  0  0  0  0  0  0
    2.6830    3.1005   -0.4277 H   0  0  0  0  0  0  0  0  0  0  0  0
    4.4557   -0.6150   -0.6641 H   0  0  0  0  0  0  0  0  0  0  0  0
    3.8569   -1.6609    0.6622 H   0  0  0  0  0  0  0  0  0  0  0  0
    4.3862    0.0108    1.0811 H   0  0  0  0  0  0  0  0  0  0  0  0
    1.4054   -1.9033    0.2208 H   0  0  0  0  0  0  0  0  0  0  0  0
  1  2  1  0
  2  3  1  0
  3  4  1  0
  3  5  1  0
  5  6  1  0
  6  7  1  0
  7  8  2  0
  8  9  1  0
  9 10  2  3
  9 11  1  0
 11 12  1  0
 11 13  1  0
  6  2  1  0
 13  7  1  0
  1 14  1  0
  1 15  1  0
  1 16  1  0
  2 17  1  1
  3 18  1  1
  4 19  1  0
  5 20  1  0
  5 21  1  0
 10 22  1  0
 12 23  1  0
 12 24  1  0
 12 25  1  0
 13 26  1  0
M  END
$$$$

     RDKit          3D

 26 27  0  0  0  0  0  0  0  0999 V2000
   -2.4014    1.5107   -0.4546 C   0  0  0  0  0  0  0  0  0  0  0  0
   -1.9962    0.4417    0.5562 C   0  0  1  0  0  0  0  0  0  0  0  0
   -2.8816   -0.7669    0.5112 C   0  0  1  0  0  0  0  0  0  0  0  0
   -4.0942   -0.6111   -0.1664 O   0  0  0  0  0  0  0  0  0  0  0  0
   -1.8262   -1.3477   -0.3674 C   0  0  0  0  0  0  0  0  0  0  0  0
   -0.8971   -0.3290    0.0483 N   0  0  0  0  0  0  0  0  0  0  0  0
    0.5128   -0.1968   -0.0701 C   0  0  0  0  0  0  0  0  0  0  0  0
    1.2515   -0.5540   -1.1680 N   0  0  0  0  0  0  0  0  0  0  0  0
    2.5564   -0.3248   -0.9595 C   0  0  0  0  0  0  0  0  0  0  0  0
    3.4731   -0.5654   -1.8402 N   0  0  0  0  0  0  0  0  0  0  0  0
    2.6461    0.1799    0.2783 N   0  0  0  0  0  0  0  0  0  0  0  0
    3.9236    0.5509    0.8789 C   0  0  0  0  0  0  0  0  0  0  0  0
    1.4234    0.2588    0.8147 N   0  0  0  0  0  0  0  0  0  0  0  0
   -1.4796    1.8427   -1.0007 H   0  0  0  0  0  0  0  0  0  0  0  0
   -2.7582    2.3925    0.0856 H   0  0  0  0  0  0  0  0  0  0  0  0
   -3.1514    1.0777   -1.1318 H   0  0  0  0  0  0  0  0  0  0  0  0
   -1.9058    0.8637    1.5694 H   0  0  0  0  0  0  0  0  0  0  0  0
   -2.9524   -1.3006    1.4753 H   0  0  0  0  0  0  0  0  0  0  0  0
   -4.3764   -1.5485   -0.4153 H   0  0  0  0  0  0  0  0  0  0  0  0
   -2.0426   -1.2118   -1.4592 H   0  0  0  0  0  0  0  0  0  0  0  0
   -1.5121   -2.3802   -0.1032 H   0  0  0  0  0  0  0  0  0  0  0  0
    4.4665   -0.3751   -1.6458 H   0  0  0  0  0  0  0  0  0  0  0  0
    4.3408    1.4184    0.3342 H   0  0  0  0  0  0  0  0  0  0  0  0
    4.6100   -0.3281    0.6988 H   0  0  0  0  0  0  0  0  0  0  0  0
    3.8522    0.6967    1.9730 H   0  0  0  0  0  0  0  0  0  0  0  0
    1.2188    0.6064    1.7642 H   0  0  0  0  0  0  0  0  0  0  0  0
  1  2  1  0
  2  3  1  0
  3  4  1  0
  3  5  1  0
  5  6  1  0
  6  7  1  0
  7  8  2  0
  8  9  1  0
  9 10  2  3
  9 11  1  0
 11 12  1  0
 11 13  1  0
  6  2  1  0
 13  7  1  0
  1 14  1  0
  1 15  1  0
  1 16  1  0
  2 17  1  1
  3 18  1  1
  4 19  1  0
  5 20  1  0
  5 21  1  0
 10 22  1  0
 12 23  1  0
 12 24  1  0
 12 25  1  0
 13 26  1  0
M  END
$$$$

     RDKit          3D

 26 27  0  0  0  0  0  0  0  0999 V2000
   -2.7430    1.3285    0.1251 C   0  0  0  0  0  0  0  0  0  0  0  0
   -2.0489    0.1071    0.7075 C   0  0  1  0  0  0  0  0  0  0  0  0
   -2.5939   -1.2005    0.2280 C   0  0  1  0  0  0  0  0  0  0  0  0
   -3.9148   -1.1933   -0.1910 O   0  0  0  0  0  0  0  0  0  0  0  0
   -1.5941   -1.0183   -0.9005 C   0  0  0  0  0  0  0  0  0  0  0  0
   -0.8328   -0.1595   -0.0185 N   0  0  0  0  0  0  0  0  0  0  0  0
    0.5534    0.1966   -0.0101 C   0  0  0  0  0  0  0  0  0  0  0  0
    1.1062    1.3737   -0.3512 N   0  0  0  0  0  0  0  0  0  0  0  0
    2.4548    1.2834   -0.2196 C   0  0  0  0  0  0  0  0  0  0  0  0
    3.3246    2.1683   -0.4283 N   0  0  0  0  0  0  0  0  0  0  0  0
    2.7490    0.0206    0.2142 N   0  0  0  0  0  0  0  0  0  0  0  0
    4.0997   -0.4915    0.4758 C   0  0  0  0  0  0  0  0  0  0  0  0
    1.5934   -0.5859    0.3255 N   0  0  0  0  0  0  0  0  0  0  0  0
   -3.4191    1.0205   -0.7131 H   0  0  0  0  0  0  0  0  0  0  0  0
   -3.3512    1.8278    0.8993 H   0  0  0  0  0  0  0  0  0  0  0  0
   -2.0299    2.0585   -0.3129 H   0  0  0  0  0  0  0  0  0  0  0  0
   -1.9463    0.1769    1.8129 H   0  0  0  0  0  0  0  0  0  0  0  0
   -2.3174   -2.0192    0.8952 H   0  0  0  0  0  0  0  0  0  0  0  0
   -4.1632   -2.1448   -0.3538 H   0  0  0  0  0  0  0  0  0  0  0  0
   -1.9598   -0.4539   -1.7758 H   0  0  0  0  0  0  0  0  0  0  0  0
   -1.0095   -1.9351   -1.1532 H   0  0  0  0  0  0  0  0  0  0  0  0
    3.2395    3.1322   -0.7288 H   0  0  0  0  0  0  0  0  0  0  0  0
    4.2462   -0.6742    1.5390 H   0  0  0  0  0  0  0  0  0  0  0  0
    4.8229    0.2329    0.0281 H   0  0  0  0  0  0  0  0  0  0  0  0
    4.2484   -1.4714   -0.0647 H   0  0  0  0  0  0  0  0  0  0  0  0
    1.4859   -1.5791    0.6419 H   0  0  0  0  0  0  0  0  0  0  0  0
  1  2  1  0
  2  3  1  0
  3  4  1  0
  3  5  1  0
  5  6  1  0
  6  7  1  0
  7  8  2  0
  8  9  1  0
  9 10  2  3
  9 11  1  0
 11 12  1  0
 11 13  1  0
  6  2  1  0
 13  7  1  0
  1 14  1  0
  1 15  1  0
  1 16  1  0
  2 17  1  1
  3 18  1  1
  4 19  1  0
  5 20  1  0
  5 21  1  0
 10 22  1  0
 12 23  1  0
 12 24  1  0
 12 25  1  0
 13 26  1  0
M  END
$$$$

     RDKit          3D

 26 27  0  0  0  0  0  0  0  0999 V2000
   -2.7697   -0.9912    0.8981 C   0  0  0  0  0  0  0  0  0  0  0  0
   -2.1208   -0.6551   -0.4135 C   0  0  1  0  0  0  0  0  0  0  0  0
   -2.7438    0.5789   -1.0319 C   0  0  1  0  0  0  0  0  0  0  0  0
   -3.9734    0.9320   -0.4807 O   0  0  0  0  0  0  0  0  0  0  0  0
   -1.6098    1.2870   -0.3711 C   0  0  0  0  0  0  0  0  0  0  0  0
   -0.8765    0.0362   -0.3470 N   0  0  0  0  0  0  0  0  0  0  0  0
    0.5339   -0.2678   -0.2814 C   0  0  0  0  0  0  0  0  0  0  0  0
    1.0921   -1.4904   -0.2655 N   0  0  0  0  0  0  0  0  0  0  0  0
    2.4413   -1.3146   -0.1985 C   0  0  0  0  0  0  0  0  0  0  0  0
    3.3165   -2.2440   -0.1645 N   0  0  0  0  0  0  0  0  0  0  0  0
    2.7160    0.0017   -0.1732 N   0  0  0  0  0  0  0  0  0  0  0  0
    4.0266    0.6240   -0.1041 C   0  0  0  0  0  0  0  0  0  0  0  0
    1.5416    0.6059   -0.2246 N   0  0  0  0  0  0  0  0  0  0  0  0
   -2.5266   -2.0598    1.1537 H   0  0  0  0  0  0  0  0  0  0  0  0
   -3.8680   -0.8477    0.8922 H   0  0  0  0  0  0  0  0  0  0  0  0
   -2.3610   -0.3601    1.7137 H   0  0  0  0  0  0  0  0  0  0  0  0
   -2.1862   -1.4968   -1.1337 H   0  0  0  0  0  0  0  0  0  0  0  0
   -2.6887    0.6422   -2.1317 H   0  0  0  0  0  0  0  0  0  0  0  0
   -3.8314    1.2065    0.4768 H   0  0  0  0  0  0  0  0  0  0  0  0
   -1.7844    1.6897    0.6303 H   0  0  0  0  0  0  0  0  0  0  0  0
   -1.0477    2.0071   -1.0350 H   0  0  0  0  0  0  0  0  0  0  0  0
    4.3272   -2.0311   -0.1136 H   0  0  0  0  0  0  0  0  0  0  0  0
    4.8125   -0.0573   -0.4636 H   0  0  0  0  0  0  0  0  0  0  0  0
    3.9706    1.5685   -0.7088 H   0  0  0  0  0  0  0  0  0  0  0  0
    4.2096    0.9785    0.9480 H   0  0  0  0  0  0  0  0  0  0  0  0
    1.4004    1.6576   -0.2219 H   0  0  0  0  0  0  0  0  0  0  0  0
  1  2  1  0
  2  3  1  0
  3  4  1  0
  3  5  1  0
  5  6  1  0
  6  7  1  0
  7  8  2  0
  8  9  1  0
  9 10  2  3
  9 11  1  0
 11 12  1  0
 11 13  1  0
  6  2  1  0
 13  7  1  0
  1 14  1  0
  1 15  1  0
  1 16  1  0
  2 17  1  6
  3 18  1  6
  4 19  1  0
  5 20  1  0
  5 21  1  0
 10 22  1  0
 12 23  1  0
 12 24  1  0
 12 25  1  0
 13 26  1  0
M  END
$$$$

     RDKit          3D

 26 27  0  0  0  0  0  0  0  0999 V2000
   -2.1380   -0.8138   -1.2638 C   0  0  0  0  0  0  0  0  0  0  0  0
   -1.9578    0.4112   -0.4046 C   0  0  1  0  0  0  0  0  0  0  0  0
   -2.9252    0.4787    0.7307 C   0  0  1  0  0  0  0  0  0  0  0  0
   -4.1083   -0.2175    0.4821 O   0  0  0  0  0  0  0  0  0  0  0  0
   -1.8824   -0.3043    1.4815 C   0  0  0  0  0  0  0  0  0  0  0  0
   -0.8885    0.1841    0.5506 N   0  0  0  0  0  0  0  0  0  0  0  0
    0.5134    0.4043    0.4557 C   0  0  0  0  0  0  0  0  0  0  0  0
    1.2378    1.4934    0.7673 N   0  0  0  0  0  0  0  0  0  0  0  0
    2.5217    1.2657    0.5215 C   0  0  0  0  0  0  0  0  0  0  0  0
    3.5026    2.0925    0.7038 N   0  0  0  0  0  0  0  0  0  0  0  0
    2.6416    0.0314    0.0499 N   0  0  0  0  0  0  0  0  0  0  0  0
    3.8309   -0.6773   -0.3619 C   0  0  0  0  0  0  0  0  0  0  0  0
    1.4247   -0.4975    0.0075 N   0  0  0  0  0  0  0  0  0  0  0  0
   -1.8408   -0.5274   -2.2974 H   0  0  0  0  0  0  0  0  0  0  0  0
   -1.4976   -1.6557   -0.9650 H   0  0  0  0  0  0  0  0  0  0  0  0
   -3.1813   -1.1555   -1.2011 H   0  0  0  0  0  0  0  0  0  0  0  0
   -1.8658    1.3661   -0.9635 H   0  0  0  0  0  0  0  0  0  0  0  0
   -3.1016    1.4973    1.1171 H   0  0  0  0  0  0  0  0  0  0  0  0
   -4.5319    0.1748   -0.3151 H   0  0  0  0  0  0  0  0  0  0  0  0
   -1.7593    0.0549    2.5224 H   0  0  0  0  0  0  0  0  0  0  0  0
   -2.0563   -1.3869    1.4334 H   0  0  0  0  0  0  0  0  0  0  0  0
    4.4854    1.8469    0.4893 H   0  0  0  0  0  0  0  0  0  0  0  0
    3.5803   -1.5008   -1.0421 H   0  0  0  0  0  0  0  0  0  0  0  0
    4.3045   -1.1044    0.5521 H   0  0  0  0  0  0  0  0  0  0  0  0
    4.5374   -0.0048   -0.8896 H   0  0  0  0  0  0  0  0  0  0  0  0
    1.1545   -1.4554   -0.3127 H   0  0  0  0  0  0  0  0  0  0  0  0
  1  2  1  0
  2  3  1  0
  3  4  1  0
  3  5  1  0
  5  6  1  0
  6  7  1  0
  7  8  2  0
  8  9  1  0
  9 10  2  3
  9 11  1  0
 11 12  1  0
 11 13  1  0
  6  2  1  0
 13  7  1  0
  1 14  1  0
  1 15  1  0
  1 16  1  0
  2 17  1  6
  3 18  1  1
  4 19  1  0
  5 20  1  0
  5 21  1  0
 10 22  1  0
 12 23  1  0
 12 24  1  0
 12 25  1  0
 13 26  1  0
M  END
$$$$

     RDKit          3D

 26 27  0  0  0  0  0  0  0  0999 V2000
   -1.6827    0.0129   -1.8380 C   0  0  0  0  0  0  0  0  0  0  0  0
   -2.2048    0.1215   -0.4396 C   0  0  1  0  0  0  0  0  0  0  0  0
   -2.7604   -1.1060    0.2096 C   0  0  1  0  0  0  0  0  0  0  0  0
   -2.0901   -2.2889    0.0393 O   0  0  0  0  0  0  0  0  0  0  0  0
   -2.2050   -0.4127    1.4720 C   0  0  0  0  0  0  0  0  0  0  0  0
   -1.1851    0.0927    0.5944 N   0  0  0  0  0  0  0  0  0  0  0  0
    0.1897    0.4190    0.6667 C   0  0  0  0  0  0  0  0  0  0  0  0
    0.8298    1.2248    1.5307 N   0  0  0  0  0  0  0  0  0  0  0  0
    2.1536    1.2586    1.2456 C   0  0  0  0  0  0  0  0  0  0  0  0
    3.0689    1.9353    1.8802 N   0  0  0  0  0  0  0  0  0  0  0  0
    2.2908    0.4460    0.1836 N   0  0  0  0  0  0  0  0  0  0  0  0
    3.5467    0.1547   -0.4880 C   0  0  0  0  0  0  0  0  0  0  0  0
    1.1362   -0.0754   -0.1933 N   0  0  0  0  0  0  0  0  0  0  0  0
   -1.2904   -0.9625   -2.1244 H   0  0  0  0  0  0  0  0  0  0  0  0
   -2.5076    0.2780   -2.5247 H   0  0  0  0  0  0  0  0  0  0  0  0
   -0.9196    0.8338   -1.9511 H   0  0  0  0  0  0  0  0  0  0  0  0
   -2.8973    0.9763   -0.3499 H   0  0  0  0  0  0  0  0  0  0  0  0
   -3.8640   -1.2025    0.2083 H   0  0  0  0  0  0  0  0  0  0  0  0
   -1.3471   -2.2950   -0.5828 H   0  0  0  0  0  0  0  0  0  0  0  0
   -1.9036   -1.1170    2.2658 H   0  0  0  0  0  0  0  0  0  0  0  0
   -2.9517    0.3555    1.7971 H   0  0  0  0  0  0  0  0  0  0  0  0
    4.0452    1.8358    1.5106 H   0  0  0  0  0  0  0  0  0  0  0  0
    3.3805    0.1530   -1.6032 H   0  0  0  0  0  0  0  0  0  0  0  0
    4.2959    0.9399   -0.2961 H   0  0  0  0  0  0  0  0  0  0  0  0
    3.9314   -0.8432   -0.2270 H   0  0  0  0  0  0  0  0  0  0  0  0
    0.9408   -0.7346   -0.9859 H   0  0  0  0  0  0  0  0  0  0  0  0
  1  2  1  0
  2  3  1  0
  3  4  1  0
  3  5  1  0
  5  6  1  0
  6  7  1  0
  7  8  2  0
  8  9  1  0
  9 10  2  3
  9 11  1  0
 11 12  1  0
 11 13  1  0
  6  2  1  0
 13  7  1  0
  1 14  1  0
  1 15  1  0
  1 16  1  0
  2 17  1  6
  3 18  1  1
  4 19  1  0
  5 20  1  0
  5 21  1  0
 10 22  1  0
 12 23  1  0
 12 24  1  0
 12 25  1  0
 13 26  1  0
M  END
$$$$

     RDKit          3D

 26 27  0  0  0  0  0  0  0  0999 V2000
   -2.1288    1.5509   -0.2568 C   0  0  0  0  0  0  0  0  0  0  0  0
   -1.9931    0.4347    0.7232 C   0  0  1  0  0  0  0  0  0  0  0  0
   -2.9203   -0.7181    0.3138 C   0  0  1  0  0  0  0  0  0  0  0  0
   -3.0286   -0.8609   -1.0640 O   0  0  0  0  0  0  0  0  0  0  0  0
   -1.8048   -1.5450    0.8866 C   0  0  0  0  0  0  0  0  0  0  0  0
   -0.8977   -0.4674    0.5501 N   0  0  0  0  0  0  0  0  0  0  0  0
    0.4751   -0.4278    0.2093 C   0  0  0  0  0  0  0  0  0  0  0  0
    1.3351   -1.4414    0.1057 N   0  0  0  0  0  0  0  0  0  0  0  0
    2.5590   -0.9981   -0.2413 C   0  0  0  0  0  0  0  0  0  0  0  0
    3.5786   -1.7366   -0.4131 N   0  0  0  0  0  0  0  0  0  0  0  0
    2.4526    0.3272   -0.3554 N   0  0  0  0  0  0  0  0  0  0  0  0
    3.5610    1.1905   -0.7184 C   0  0  0  0  0  0  0  0  0  0  0  0
    1.2039    0.6810   -0.0867 N   0  0  0  0  0  0  0  0  0  0  0  0
   -3.1730    1.9656   -0.1359 H   0  0  0  0  0  0  0  0  0  0  0  0
   -1.4549    2.3962   -0.0879 H   0  0  0  0  0  0  0  0  0  0  0  0
   -2.0858    1.1357   -1.2848 H   0  0  0  0  0  0  0  0  0  0  0  0
   -2.1512    0.7018    1.7790 H   0  0  0  0  0  0  0  0  0  0  0  0
   -3.8634   -0.7045    0.8767 H   0  0  0  0  0  0  0  0  0  0  0  0
   -3.0625   -1.8066   -1.3226 H   0  0  0  0  0  0  0  0  0  0  0  0
   -1.5903   -2.5006    0.3839 H   0  0  0  0  0  0  0  0  0  0  0  0
   -1.8775   -1.6063    2.0043 H   0  0  0  0  0  0  0  0  0  0  0  0
    4.5207   -1.4356   -0.6759 H   0  0  0  0  0  0  0  0  0  0  0  0
    3.2570    2.2606   -0.6297 H   0  0  0  0  0  0  0  0  0  0  0  0
    3.8790    1.0028   -1.7738 H   0  0  0  0  0  0  0  0  0  0  0  0
    4.3875    0.9625   -0.0192 H   0  0  0  0  0  0  0  0  0  0  0  0
    0.8223    1.6391   -0.0945 H   0  0  0  0  0  0  0  0  0  0  0  0
  1  2  1  0
  2  3  1  0
  3  4  1  0
  3  5  1  0
  5  6  1  0
  6  7  1  0
  7  8  2  0
  8  9  1  0
  9 10  2  3
  9 11  1  0
 11 12  1  0
 11 13  1  0
  6  2  1  0
 13  7  1  0
  1 14  1  0
  1 15  1  0
  1 16  1  0
  2 17  1  1
  3 18  1  1
  4 19  1  0
  5 20  1  0
  5 21  1  0
 10 22  1  0
 12 23  1  0
 12 24  1  0
 12 25  1  0
 13 26  1  0
M  END
$$$$

     RDKit          3D

 26 27  0  0  0  0  0  0  0  0999 V2000
    1.7052    0.2195    2.1223 C   0  0  0  0  0  0  0  0  0  0  0  0
    2.1067    0.4697    0.6931 C   0  0  1  0  0  0  0  0  0  0  0  0
    2.8792   -0.6996    0.0406 C   0  0  1  0  0  0  0  0  0  0  0  0
    2.3259   -1.9336    0.3075 O   0  0  0  0  0  0  0  0  0  0  0  0
    2.1814   -0.0873   -1.1917 C   0  0  0  0  0  0  0  0  0  0  0  0
    1.0918    0.1473   -0.2932 N   0  0  0  0  0  0  0  0  0  0  0  0
   -0.3073    0.0810   -0.2886 C   0  0  0  0  0  0  0  0  0  0  0  0
   -1.0678   -0.8574    0.3428 N   0  0  0  0  0  0  0  0  0  0  0  0
   -2.3662   -0.6401    0.1411 C   0  0  0  0  0  0  0  0  0  0  0  0
   -3.3139   -1.3562    0.6236 N   0  0  0  0  0  0  0  0  0  0  0  0
   -2.4341    0.4477   -0.6262 N   0  0  0  0  0  0  0  0  0  0  0  0
   -3.6615    1.0499   -1.0839 C   0  0  0  0  0  0  0  0  0  0  0  0
   -1.2160    0.8757   -0.8843 N   0  0  0  0  0  0  0  0  0  0  0  0
    2.3977    0.7886    2.7495 H   0  0  0  0  0  0  0  0  0  0  0  0
    1.7285   -0.8516    2.3599 H   0  0  0  0  0  0  0  0  0  0  0  0
    0.6660    0.6433    2.2637 H   0  0  0  0  0  0  0  0  0  0  0  0
    2.6441    1.4101    0.4869 H   0  0  0  0  0  0  0  0  0  0  0  0
    3.9769   -0.5980    0.0604 H   0  0  0  0  0  0  0  0  0  0  0  0
    1.9319   -2.2933   -0.5448 H   0  0  0  0  0  0  0  0  0  0  0  0
    2.0695   -0.7978   -2.0105 H   0  0  0  0  0  0  0  0  0  0  0  0
    2.7320    0.8552   -1.4256 H   0  0  0  0  0  0  0  0  0  0  0  0
   -3.0884   -2.1818    1.2307 H   0  0  0  0  0  0  0  0  0  0  0  0
   -3.9980    1.8807   -0.4300 H   0  0  0  0  0  0  0  0  0  0  0  0
   -3.5327    1.4173   -2.1168 H   0  0  0  0  0  0  0  0  0  0  0  0
   -4.4811    0.2820   -1.0564 H   0  0  0  0  0  0  0  0  0  0  0  0
   -0.9697    1.7286   -1.4703 H   0  0  0  0  0  0  0  0  0  0  0  0
  1  2  1  0
  2  3  1  0
  3  4  1  0
  3  5  1  0
  5  6  1  0
  6  7  1  0
  7  8  2  0
  8  9  1  0
  9 10  2  3
  9 11  1  0
 11 12  1  0
 11 13  1  0
  6  2  1  0
 13  7  1  0
  1 14  1  0
  1 15  1  0
  1 16  1  0
  2 17  1  1
  3 18  1  6
  4 19  1  0
  5 20  1  0
  5 21  1  0
 10 22  1  0
 12 23  1  0
 12 24  1  0
 12 25  1  0
 13 26  1  0
M  END
$$$$
