
     RDKit          3D

 27 27  0  0  0  0  0  0  0  0999 V2000
   -2.0126   -0.1774   -1.6918 C   0  0  0  0  0  0  0  0  0  0  0  0
   -1.7473    0.0483   -0.3046 N   0  0  0  0  0  0  0  0  0  0  0  0
   -2.9589    0.5726    0.3041 C   0  0  0  0  0  0  0  0  0  0  0  0
   -0.6331    0.7985   -0.0368 N   0  0  0  0  0  0  0  0  0  0  0  0
    0.3819   -0.0155    0.5965 C   0  0  0  0  0  0  0  0  0  0  0  0
   -0.0151   -0.6211    1.8683 C   0  0  0  0  0  0  0  0  0  0  0  0
   -1.1462   -0.4363    2.3505 O   0  0  0  0  0  0  0  0  0  0  0  0
    0.8766   -1.4167    2.5569 O   0  0  0  0  0  0  0  0  0  0  0  0
    1.7295    0.6824    0.7491 C   0  0  0  0  0  0  0  0  0  0  0  0
    2.0568    0.1932   -0.6425 C   0  0  0  0  0  0  0  0  0  0  0  0
    3.3981   -0.2675   -0.8345 N   0  0  0  0  0  0  0  0  0  0  0  0
    1.0954   -0.9677   -0.3664 C   0  0  0  0  0  0  0  0  0  0  0  0
   -1.1876    0.0238   -2.3696 H   0  0  0  0  0  0  0  0  0  0  0  0
   -2.8923    0.4005   -2.0671 H   0  0  0  0  0  0  0  0  0  0  0  0
   -2.3027   -1.2525   -1.8175 H   0  0  0  0  0  0  0  0  0  0  0  0
   -3.4413   -0.2684    0.8341 H   0  0  0  0  0  0  0  0  0  0  0  0
   -3.6674    0.9221   -0.4783 H   0  0  0  0  0  0  0  0  0  0  0  0
   -2.7287    1.3902    1.0390 H   0  0  0  0  0  0  0  0  0  0  0  0
   -0.2382    1.3304   -0.8186 H   0  0  0  0  0  0  0  0  0  0  0  0
    0.5830   -1.9777    3.3420 H   0  0  0  0  0  0  0  0  0  0  0  0
    2.3446    0.1561    1.4851 H   0  0  0  0  0  0  0  0  0  0  0  0
    1.6821    1.7626    0.8890 H   0  0  0  0  0  0  0  0  0  0  0  0
    1.6465    0.8395   -1.4273 H   0  0  0  0  0  0  0  0  0  0  0  0
    3.4990   -0.5656   -1.8217 H   0  0  0  0  0  0  0  0  0  0  0  0
    3.5972   -1.0548   -0.2018 H   0  0  0  0  0  0  0  0  0  0  0  0
    0.5238   -1.2379   -1.2564 H   0  0  0  0  0  0  0  0  0  0  0  0
    1.5566   -1.8342    0.1202 H   0  0  0  0  0  0  0  0  0  0  0  0
  1  2  1  0
  2  3  1  0
  2  4  1  0
  4  5  1  0
  5  6  1  0
  6  7  2  0
  6  8  1  0
  5  9  1  0
  9 10  1  0
 10 11  1  0
 10 12  1  0
 12  5  1  0
  1 13  1  0
  1 14  1  0
  1 15  1  0
  3 16  1  0
  3 17  1  0
  3 18  1  0
  4 19  1  0
  8 20  1  0
  9 21  1  0
  9 22  1  0
 10 23  1  0
 11 24  1  0
 11 25  1  0
 12 26  1  0
 12 27  1  0
M  END
$$$$

     RDKit          3D

 27 27  0  0  0  0  0  0  0  0999 V2000
   -2.1472   -0.9647    1.0159 C   0  0  0  0  0  0  0  0  0  0  0  0
   -1.9840   -0.1687   -0.1207 N   0  0  0  0  0  0  0  0  0  0  0  0
   -3.1503   -0.0066   -0.9490 C   0  0  0  0  0  0  0  0  0  0  0  0
   -0.8036   -0.0980   -0.7550 N   0  0  0  0  0  0  0  0  0  0  0  0
    0.3489    0.3567   -0.1212 C   0  0  0  0  0  0  0  0  0  0  0  0
    0.3146    1.7442    0.4120 C   0  0  0  0  0  0  0  0  0  0  0  0
   -0.7241    2.4190    0.2684 O   0  0  0  0  0  0  0  0  0  0  0  0
    1.3923    2.3225    1.0649 O   0  0  0  0  0  0  0  0  0  0  0  0
    1.5388    0.2530   -1.0914 C   0  0  0  0  0  0  0  0  0  0  0  0
    2.3888   -0.1532    0.0772 C   0  0  0  0  0  0  0  0  0  0  0  0
    3.2510   -1.2806   -0.2259 N   0  0  0  0  0  0  0  0  0  0  0  0
    1.1065   -0.5360    0.8057 C   0  0  0  0  0  0  0  0  0  0  0  0
   -3.2303   -1.0687    1.2481 H   0  0  0  0  0  0  0  0  0  0  0  0
   -1.6804   -0.5823    1.9483 H   0  0  0  0  0  0  0  0  0  0  0  0
   -1.8119   -2.0233    0.8046 H   0  0  0  0  0  0  0  0  0  0  0  0
   -3.9272   -0.7588   -0.7059 H   0  0  0  0  0  0  0  0  0  0  0  0
   -2.9196   -0.1381   -2.0297 H   0  0  0  0  0  0  0  0  0  0  0  0
   -3.5590    1.0120   -0.8193 H   0  0  0  0  0  0  0  0  0  0  0  0
   -0.9295    0.3993   -1.6661 H   0  0  0  0  0  0  0  0  0  0  0  0
    1.4919    3.3492    1.0888 H   0  0  0  0  0  0  0  0  0  0  0  0
    1.4102   -0.6031   -1.7901 H   0  0  0  0  0  0  0  0  0  0  0  0
    1.8090    1.2111   -1.5655 H   0  0  0  0  0  0  0  0  0  0  0  0
    2.9543    0.6718    0.5156 H   0  0  0  0  0  0  0  0  0  0  0  0
    2.7017   -2.1368   -0.4360 H   0  0  0  0  0  0  0  0  0  0  0  0
    3.9989   -1.4139    0.4756 H   0  0  0  0  0  0  0  0  0  0  0  0
    1.2038   -0.1876    1.8557 H   0  0  0  0  0  0  0  0  0  0  0  0
    0.9563   -1.6184    0.6950 H   0  0  0  0  0  0  0  0  0  0  0  0
  1  2  1  0
  2  3  1  0
  2  4  1  0
  4  5  1  0
  5  6  1  0
  6  7  2  0
  6  8  1  0
  5  9  1  0
  9 10  1  0
 10 11  1  0
 10 12  1  0
 12  5  1  0
  1 13  1  0
  1 14  1  0
  1 15  1  0
  3 16  1  0
  3 17  1  0
  3 18  1  0
  4 19  1  0
  8 20  1  0
  9 21  1  0
  9 22  1  0
 10 23  1  0
 11 24  1  0
 11 25  1  0
 12 26  1  0
 12 27  1  0
M  END
$$$$

     RDKit          3D

 27 27  0  0  0  0  0  0  0  0999 V2000
    2.2911    0.0027    0.7050 C   0  0  0  0  0  0  0  0  0  0  0  0
    1.4667   -0.7606   -0.1545 N   0  0  0  0  0  0  0  0  0  0  0  0
    2.0506   -1.9193   -0.7543 C   0  0  0  0  0  0  0  0  0  0  0  0
    0.6132   -0.0457   -0.9090 N   0  0  0  0  0  0  0  0  0  0  0  0
   -0.3683    0.6484   -0.1376 C   0  0  0  0  0  0  0  0  0  0  0  0
    0.1557    1.8979    0.5204 C   0  0  0  0  0  0  0  0  0  0  0  0
    0.2441    2.2107    1.6137 O   0  0  0  0  0  0  0  0  0  0  0  0
    0.5393    2.8350   -0.5163 O   0  0  0  0  0  0  0  0  0  0  0  0
   -1.7428    0.8124   -0.6550 C   0  0  0  0  0  0  0  0  0  0  0  0
   -2.3189   -0.0079    0.4576 C   0  0  0  0  0  0  0  0  0  0  0  0
   -3.0533   -1.1233   -0.0734 N   0  0  0  0  0  0  0  0  0  0  0  0
   -0.9494   -0.2918    0.9627 C   0  0  0  0  0  0  0  0  0  0  0  0
    2.5747    0.9944    0.2681 H   0  0  0  0  0  0  0  0  0  0  0  0
    3.2452   -0.5076    0.9431 H   0  0  0  0  0  0  0  0  0  0  0  0
    1.7434    0.0958    1.6705 H   0  0  0  0  0  0  0  0  0  0  0  0
    2.4430   -2.5652    0.0684 H   0  0  0  0  0  0  0  0  0  0  0  0
    1.2603   -2.5154   -1.2408 H   0  0  0  0  0  0  0  0  0  0  0  0
    2.9227   -1.7212   -1.4069 H   0  0  0  0  0  0  0  0  0  0  0  0
    0.1911   -0.5513   -1.7259 H   0  0  0  0  0  0  0  0  0  0  0  0
    0.8210    3.7785   -0.2695 H   0  0  0  0  0  0  0  0  0  0  0  0
   -2.0858    1.8854   -0.5542 H   0  0  0  0  0  0  0  0  0  0  0  0
   -1.8217    0.4375   -1.6800 H   0  0  0  0  0  0  0  0  0  0  0  0
   -2.9276    0.5180    1.2184 H   0  0  0  0  0  0  0  0  0  0  0  0
   -2.5225   -2.0125   -0.1130 H   0  0  0  0  0  0  0  0  0  0  0  0
   -3.4495   -0.8476   -1.0117 H   0  0  0  0  0  0  0  0  0  0  0  0
   -0.5619   -1.3055    0.7856 H   0  0  0  0  0  0  0  0  0  0  0  0
   -0.7604    0.0580    1.9888 H   0  0  0  0  0  0  0  0  0  0  0  0
  1  2  1  0
  2  3  1  0
  2  4  1  0
  4  5  1  0
  5  6  1  0
  6  7  2  0
  6  8  1  0
  5  9  1  0
  9 10  1  0
 10 11  1  0
 10 12  1  0
 12  5  1  0
  1 13  1  0
  1 14  1  0
  1 15  1  0
  3 16  1  0
  3 17  1  0
  3 18  1  0
  4 19  1  0
  8 20  1  0
  9 21  1  0
  9 22  1  0
 10 23  1  0
 11 24  1  0
 11 25  1  0
 12 26  1  0
 12 27  1  0
M  END
$$$$

     RDKit          3D

 27 27  0  0  0  0  0  0  0  0999 V2000
    2.1169   -1.6093    0.3307 C   0  0  0  0  0  0  0  0  0  0  0  0
    1.7740   -0.1777    0.2914 N   0  0  0  0  0  0  0  0  0  0  0  0
    2.9571    0.5216   -0.1355 C   0  0  0  0  0  0  0  0  0  0  0  0
    0.7029   -0.0436   -0.5519 N   0  0  0  0  0  0  0  0  0  0  0  0
   -0.4505    0.5813   -0.0015 C   0  0  0  0  0  0  0  0  0  0  0  0
   -0.2496    1.9440    0.4800 C   0  0  0  0  0  0  0  0  0  0  0  0
    0.8899    2.4643    0.3825 O   0  0  0  0  0  0  0  0  0  0  0  0
   -1.2569    2.6997    1.0430 O   0  0  0  0  0  0  0  0  0  0  0  0
   -1.3007   -0.2293    0.9266 C   0  0  0  0  0  0  0  0  0  0  0  0
   -2.3575   -0.4325   -0.1443 C   0  0  0  0  0  0  0  0  0  0  0  0
   -2.3223   -1.8216   -0.5860 N   0  0  0  0  0  0  0  0  0  0  0  0
   -1.6003    0.5316   -1.0146 C   0  0  0  0  0  0  0  0  0  0  0  0
    2.9593   -1.8077   -0.3930 H   0  0  0  0  0  0  0  0  0  0  0  0
    2.4205   -1.8230    1.3683 H   0  0  0  0  0  0  0  0  0  0  0  0
    1.2767   -2.2330   -0.0205 H   0  0  0  0  0  0  0  0  0  0  0  0
    3.2911    1.1686    0.7257 H   0  0  0  0  0  0  0  0  0  0  0  0
    2.8045    1.1172   -1.0604 H   0  0  0  0  0  0  0  0  0  0  0  0
    3.8272   -0.1671   -0.3134 H   0  0  0  0  0  0  0  0  0  0  0  0
    0.5119   -0.8526   -1.1619 H   0  0  0  0  0  0  0  0  0  0  0  0
   -1.1087    3.6092    1.4564 H   0  0  0  0  0  0  0  0  0  0  0  0
   -1.7282    0.3686    1.7588 H   0  0  0  0  0  0  0  0  0  0  0  0
   -0.8539   -1.1592    1.3228 H   0  0  0  0  0  0  0  0  0  0  0  0
   -3.3720   -0.0601    0.1273 H   0  0  0  0  0  0  0  0  0  0  0  0
   -2.4268   -1.9148   -1.6039 H   0  0  0  0  0  0  0  0  0  0  0  0
   -3.0788   -2.3297   -0.0708 H   0  0  0  0  0  0  0  0  0  0  0  0
   -1.3159    0.1352   -2.0041 H   0  0  0  0  0  0  0  0  0  0  0  0
   -2.1097    1.5199   -1.1521 H   0  0  0  0  0  0  0  0  0  0  0  0
  1  2  1  0
  2  3  1  0
  2  4  1  0
  4  5  1  0
  5  6  1  0
  6  7  2  0
  6  8  1  0
  5  9  1  0
  9 10  1  0
 10 11  1  0
 10 12  1  0
 12  5  1  0
  1 13  1  0
  1 14  1  0
  1 15  1  0
  3 16  1  0
  3 17  1  0
  3 18  1  0
  4 19  1  0
  8 20  1  0
  9 21  1  0
  9 22  1  0
 10 23  1  0
 11 24  1  0
 11 25  1  0
 12 26  1  0
 12 27  1  0
M  END
$$$$

     RDKit          3D

 27 27  0  0  0  0  0  0  0  0999 V2000
    2.3039   -0.2328    0.9416 C   0  0  0  0  0  0  0  0  0  0  0  0
    1.6801   -0.3659   -0.3512 N   0  0  0  0  0  0  0  0  0  0  0  0
    2.6682   -0.5841   -1.3784 C   0  0  0  0  0  0  0  0  0  0  0  0
    0.7765    0.6053   -0.6061 N   0  0  0  0  0  0  0  0  0  0  0  0
   -0.4782    0.5679    0.0281 C   0  0  0  0  0  0  0  0  0  0  0  0
   -0.5628    1.3882    1.2798 C   0  0  0  0  0  0  0  0  0  0  0  0
   -0.7645    0.9792    2.3603 O   0  0  0  0  0  0  0  0  0  0  0  0
   -0.4338    2.7817    0.9749 O   0  0  0  0  0  0  0  0  0  0  0  0
   -1.7304    0.5975   -0.7701 C   0  0  0  0  0  0  0  0  0  0  0  0
   -2.3021   -0.4204    0.2093 C   0  0  0  0  0  0  0  0  0  0  0  0
   -3.0916   -1.4608   -0.4004 N   0  0  0  0  0  0  0  0  0  0  0  0
   -0.8829   -0.8931    0.4270 C   0  0  0  0  0  0  0  0  0  0  0  0
    2.7697    0.7648    0.9850 H   0  0  0  0  0  0  0  0  0  0  0  0
    3.0763   -1.0212    0.9873 H   0  0  0  0  0  0  0  0  0  0  0  0
    1.5658   -0.4236    1.7467 H   0  0  0  0  0  0  0  0  0  0  0  0
    2.8695   -1.6843   -1.4191 H   0  0  0  0  0  0  0  0  0  0  0  0
    3.6124   -0.0996   -1.0175 H   0  0  0  0  0  0  0  0  0  0  0  0
    2.3622   -0.1932   -2.3599 H   0  0  0  0  0  0  0  0  0  0  0  0
    0.7405    0.9541   -1.5960 H   0  0  0  0  0  0  0  0  0  0  0  0
   -0.4698    3.4736    1.7257 H   0  0  0  0  0  0  0  0  0  0  0  0
   -1.6270    0.1857   -1.7943 H   0  0  0  0  0  0  0  0  0  0  0  0
   -2.2442    1.6035   -0.7157 H   0  0  0  0  0  0  0  0  0  0  0  0
   -2.7998   -0.0039    1.0947 H   0  0  0  0  0  0  0  0  0  0  0  0
   -2.7091   -2.3888   -0.0995 H   0  0  0  0  0  0  0  0  0  0  0  0
   -3.0838   -1.3183   -1.4268 H   0  0  0  0  0  0  0  0  0  0  0  0
   -0.6870   -1.1580    1.4570 H   0  0  0  0  0  0  0  0  0  0  0  0
   -0.5581   -1.6535   -0.2822 H   0  0  0  0  0  0  0  0  0  0  0  0
  1  2  1  0
  2  3  1  0
  2  4  1  0
  4  5  1  0
  5  6  1  0
  6  7  2  0
  6  8  1  0
  5  9  1  0
  9 10  1  0
 10 11  1  0
 10 12  1  0
 12  5  1  0
  1 13  1  0
  1 14  1  0
  1 15  1  0
  3 16  1  0
  3 17  1  0
  3 18  1  0
  4 19  1  0
  8 20  1  0
  9 21  1  0
  9 22  1  0
 10 23  1  0
 11 24  1  0
 11 25  1  0
 12 26  1  0
 12 27  1  0
M  END
$$$$

     RDKit          3D

 27 27  0  0  0  0  0  0  0  0999 V2000
    2.3492   -1.0928    0.8524 C   0  0  0  0  0  0  0  0  0  0  0  0
    1.9052    0.1444    0.2360 N   0  0  0  0  0  0  0  0  0  0  0  0
    3.0289    0.7534   -0.4075 C   0  0  0  0  0  0  0  0  0  0  0  0
    0.8400   -0.1334   -0.5830 N   0  0  0  0  0  0  0  0  0  0  0  0
   -0.4234    0.3218   -0.1202 C   0  0  0  0  0  0  0  0  0  0  0  0
   -0.5281    1.7840    0.0799 C   0  0  0  0  0  0  0  0  0  0  0  0
    0.4835    2.4802   -0.1701 O   0  0  0  0  0  0  0  0  0  0  0  0
   -1.6721    2.4184    0.5242 O   0  0  0  0  0  0  0  0  0  0  0  0
   -1.5266   -0.1262   -1.0851 C   0  0  0  0  0  0  0  0  0  0  0  0
   -2.3933   -0.4159    0.1209 C   0  0  0  0  0  0  0  0  0  0  0  0
   -3.1746   -1.6075    0.0688 N   0  0  0  0  0  0  0  0  0  0  0  0
   -1.0976   -0.5207    0.9334 C   0  0  0  0  0  0  0  0  0  0  0  0
    3.4369   -1.1801    0.9272 H   0  0  0  0  0  0  0  0  0  0  0  0
    1.9049   -1.2018    1.8785 H   0  0  0  0  0  0  0  0  0  0  0  0
    1.9866   -1.9865    0.2842 H   0  0  0  0  0  0  0  0  0  0  0  0
    3.5663    1.4812    0.2270 H   0  0  0  0  0  0  0  0  0  0  0  0
    2.6864    1.1975   -1.3776 H   0  0  0  0  0  0  0  0  0  0  0  0
    3.7509   -0.0432   -0.6817 H   0  0  0  0  0  0  0  0  0  0  0  0
    1.0166    0.0011   -1.5967 H   0  0  0  0  0  0  0  0  0  0  0  0
   -1.7996    3.4274    0.3884 H   0  0  0  0  0  0  0  0  0  0  0  0
   -1.2407   -1.0244   -1.6767 H   0  0  0  0  0  0  0  0  0  0  0  0
   -1.8941    0.7053   -1.7332 H   0  0  0  0  0  0  0  0  0  0  0  0
   -2.9696    0.4707    0.4464 H   0  0  0  0  0  0  0  0  0  0  0  0
   -3.6435   -1.7755   -0.8347 H   0  0  0  0  0  0  0  0  0  0  0  0
   -2.6947   -2.4616    0.4339 H   0  0  0  0  0  0  0  0  0  0  0  0
   -1.2147   -0.0792    1.9221 H   0  0  0  0  0  0  0  0  0  0  0  0
   -0.6827   -1.5364    0.9451 H   0  0  0  0  0  0  0  0  0  0  0  0
  1  2  1  0
  2  3  1  0
  2  4  1  0
  4  5  1  0
  5  6  1  0
  6  7  2  0
  6  8  1  0
  5  9  1  0
  9 10  1  0
 10 11  1  0
 10 12  1  0
 12  5  1  0
  1 13  1  0
  1 14  1  0
  1 15  1  0
  3 16  1  0
  3 17  1  0
  3 18  1  0
  4 19  1  0
  8 20  1  0
  9 21  1  0
  9 22  1  0
 10 23  1  0
 11 24  1  0
 11 25  1  0
 12 26  1  0
 12 27  1  0
M  END
$$$$

     RDKit          3D

 27 27  0  0  0  0  0  0  0  0999 V2000
   -2.1014   -1.2085    0.3622 C   0  0  0  0  0  0  0  0  0  0  0  0
   -1.6289    0.1074    0.5887 N   0  0  0  0  0  0  0  0  0  0  0  0
   -2.5271    1.0320    1.1561 C   0  0  0  0  0  0  0  0  0  0  0  0
   -0.3041    0.2555    0.8651 N   0  0  0  0  0  0  0  0  0  0  0  0
    0.5328    0.5071   -0.2825 C   0  0  0  0  0  0  0  0  0  0  0  0
    0.1824    1.7443   -1.0302 C   0  0  0  0  0  0  0  0  0  0  0  0
   -0.7797    2.4339   -0.6056 O   0  0  0  0  0  0  0  0  0  0  0  0
    0.8592    2.1616   -2.1545 O   0  0  0  0  0  0  0  0  0  0  0  0
    0.8291   -0.6841   -1.1551 C   0  0  0  0  0  0  0  0  0  0  0  0
    2.1197   -0.8927   -0.3574 C   0  0  0  0  0  0  0  0  0  0  0  0
    2.0104   -1.8119    0.7192 N   0  0  0  0  0  0  0  0  0  0  0  0
    2.0039    0.5442    0.0779 C   0  0  0  0  0  0  0  0  0  0  0  0
   -2.2385   -1.3764   -0.7258 H   0  0  0  0  0  0  0  0  0  0  0  0
   -3.0536   -1.3504    0.9091 H   0  0  0  0  0  0  0  0  0  0  0  0
   -1.3679   -1.9330    0.7640 H   0  0  0  0  0  0  0  0  0  0  0  0
   -2.0563    1.8300    1.7538 H   0  0  0  0  0  0  0  0  0  0  0  0
   -3.1621    1.5036    0.4016 H   0  0  0  0  0  0  0  0  0  0  0  0
   -3.2205    0.4759    1.8436 H   0  0  0  0  0  0  0  0  0  0  0  0
    0.0456   -0.6139    1.3260 H   0  0  0  0  0  0  0  0  0  0  0  0
    0.3292    2.6343   -2.8812 H   0  0  0  0  0  0  0  0  0  0  0  0
    1.0007   -0.4477   -2.2238 H   0  0  0  0  0  0  0  0  0  0  0  0
    0.1309   -1.5387   -1.0678 H   0  0  0  0  0  0  0  0  0  0  0  0
    3.0018   -1.0958   -0.9806 H   0  0  0  0  0  0  0  0  0  0  0  0
    2.2740   -1.4481    1.6516 H   0  0  0  0  0  0  0  0  0  0  0  0
    2.2944   -2.7728    0.5243 H   0  0  0  0  0  0  0  0  0  0  0  0
    2.5932    1.1854   -0.6106 H   0  0  0  0  0  0  0  0  0  0  0  0
    2.2329    0.7585    1.1320 H   0  0  0  0  0  0  0  0  0  0  0  0
  1  2  1  0
  2  3  1  0
  2  4  1  0
  4  5  1  0
  5  6  1  0
  6  7  2  0
  6  8  1  0
  5  9  1  0
  9 10  1  0
 10 11  1  0
 10 12  1  0
 12  5  1  0
  1 13  1  0
  1 14  1  0
  1 15  1  0
  3 16  1  0
  3 17  1  0
  3 18  1  0
  4 19  1  0
  8 20  1  0
  9 21  1  0
  9 22  1  0
 10 23  1  0
 11 24  1  0
 11 25  1  0
 12 26  1  0
 12 27  1  0
M  END
$$$$

     RDKit          3D

 27 27  0  0  0  0  0  0  0  0999 V2000
   -2.3071   -1.1882    0.5678 C   0  0  0  0  0  0  0  0  0  0  0  0
   -1.3381   -0.5129   -0.3103 N   0  0  0  0  0  0  0  0  0  0  0  0
   -2.1201   -0.0952   -1.4809 C   0  0  0  0  0  0  0  0  0  0  0  0
   -0.8953    0.5966    0.3585 N   0  0  0  0  0  0  0  0  0  0  0  0
    0.5069    0.7574    0.4760 C   0  0  0  0  0  0  0  0  0  0  0  0
    0.8600    1.9883    1.2213 C   0  0  0  0  0  0  0  0  0  0  0  0
   -0.0552    2.7318    1.6548 O   0  0  0  0  0  0  0  0  0  0  0  0
    2.2061    2.3415    1.4536 O   0  0  0  0  0  0  0  0  0  0  0  0
    1.3092    0.6189   -0.7953 C   0  0  0  0  0  0  0  0  0  0  0  0
    1.7902   -0.7361   -0.3209 C   0  0  0  0  0  0  0  0  0  0  0  0
    1.1730   -1.7856   -1.0865 N   0  0  0  0  0  0  0  0  0  0  0  0
    1.2302   -0.4513    1.0237 C   0  0  0  0  0  0  0  0  0  0  0  0
   -1.7887   -1.6817    1.4113 H   0  0  0  0  0  0  0  0  0  0  0  0
   -2.8973   -1.9342    0.0349 H   0  0  0  0  0  0  0  0  0  0  0  0
   -2.9401   -0.3534    0.9781 H   0  0  0  0  0  0  0  0  0  0  0  0
   -1.4868   -0.0554   -2.3849 H   0  0  0  0  0  0  0  0  0  0  0  0
   -2.5980    0.8929   -1.2624 H   0  0  0  0  0  0  0  0  0  0  0  0
   -2.9676   -0.8026   -1.6630 H   0  0  0  0  0  0  0  0  0  0  0  0
   -1.4612    0.9504    1.1302 H   0  0  0  0  0  0  0  0  0  0  0  0
    2.3470    3.3177    1.6851 H   0  0  0  0  0  0  0  0  0  0  0  0
    2.1684    1.3203   -0.8110 H   0  0  0  0  0  0  0  0  0  0  0  0
    0.7355    0.6098   -1.7341 H   0  0  0  0  0  0  0  0  0  0  0  0
    2.9109   -0.8542   -0.3389 H   0  0  0  0  0  0  0  0  0  0  0  0
    1.3048   -1.5961   -2.1105 H   0  0  0  0  0  0  0  0  0  0  0  0
    1.6983   -2.6871   -0.9129 H   0  0  0  0  0  0  0  0  0  0  0  0
    0.5843   -1.2209    1.4806 H   0  0  0  0  0  0  0  0  0  0  0  0
    2.0307   -0.1707    1.7355 H   0  0  0  0  0  0  0  0  0  0  0  0
  1  2  1  0
  2  3  1  0
  2  4  1  0
  4  5  1  0
  5  6  1  0
  6  7  2  0
  6  8  1  0
  5  9  1  0
  9 10  1  0
 10 11  1  0
 10 12  1  0
 12  5  1  0
  1 13  1  0
  1 14  1  0
  1 15  1  0
  3 16  1  0
  3 17  1  0
  3 18  1  0
  4 19  1  0
  8 20  1  0
  9 21  1  0
  9 22  1  0
 10 23  1  0
 11 24  1  0
 11 25  1  0
 12 26  1  0
 12 27  1  0
M  END
$$$$
