
     RDKit          3D

 27 27  0  0  0  0  0  0  0  0999 V2000
   -1.1641    0.4388    2.1519 C   0  0  0  0  0  0  0  0  0  0  0  0
   -1.7130   -0.0137    0.9634 O   0  0  0  0  0  0  0  0  0  0  0  0
   -1.1975    0.5831   -0.1595 C   0  0  2  0  0  0  0  0  0  0  0  0
   -2.2615    1.3448   -0.8756 C   0  0  0  0  0  0  0  0  0  0  0  0
   -2.7750    2.3608    0.0305 N   0  0  0  0  0  0  0  0  0  0  0  0
   -0.4629   -0.3884   -1.0610 C   0  0  1  0  0  0  0  0  0  0  0  0
    0.0368    0.2546   -2.1745 O   0  0  0  0  0  0  0  0  0  0  0  0
    0.6731   -0.9853   -0.3111 C   0  0  0  0  0  0  0  0  0  0  0  0
    0.7367   -2.2454    0.2231 C   0  0  0  0  0  0  0  0  0  0  0  0
    1.9533   -2.3422    0.8087 N   0  0  0  0  0  0  0  0  0  0  0  0
    2.5967   -1.2091    0.6432 N   0  0  0  0  0  0  0  0  0  0  0  0
    3.9317   -0.8545    1.1009 C   0  0  0  0  0  0  0  0  0  0  0  0
    1.8312   -0.3714   -0.0370 N   0  0  0  0  0  0  0  0  0  0  0  0
   -1.3291    1.5216    2.2782 H   0  0  0  0  0  0  0  0  0  0  0  0
   -0.1151    0.1292    2.2142 H   0  0  0  0  0  0  0  0  0  0  0  0
   -1.7118   -0.0966    2.9733 H   0  0  0  0  0  0  0  0  0  0  0  0
   -0.4202    1.3269    0.1815 H   0  0  0  0  0  0  0  0  0  0  0  0
   -1.9154    1.8361   -1.7992 H   0  0  0  0  0  0  0  0  0  0  0  0
   -3.1188    0.6865   -1.1475 H   0  0  0  0  0  0  0  0  0  0  0  0
   -2.0338    2.9404    0.4562 H   0  0  0  0  0  0  0  0  0  0  0  0
   -3.3117    1.9196    0.8118 H   0  0  0  0  0  0  0  0  0  0  0  0
   -1.1261   -1.2118   -1.3867 H   0  0  0  0  0  0  0  0  0  0  0  0
    0.1050   -0.3306   -2.9487 H   0  0  0  0  0  0  0  0  0  0  0  0
   -0.0302   -2.9998    0.1812 H   0  0  0  0  0  0  0  0  0  0  0  0
    4.0859   -1.2337    2.1398 H   0  0  0  0  0  0  0  0  0  0  0  0
    4.6818   -1.3045    0.4312 H   0  0  0  0  0  0  0  0  0  0  0  0
    4.0540    0.2444    1.1582 H   0  0  0  0  0  0  0  0  0  0  0  0
  1  2  1  0
  2  3  1  0
  3  4  1  0
  4  5  1  0
  3  6  1  0
  6  7  1  0
  6  8  1  0
  8  9  1  0
  9 10  2  0
 10 11  1  0
 11 12  1  0
 11 13  1  0
 13  8  2  0
  1 14  1  0
  1 15  1  0
  1 16  1  0
  3 17  1  1
  4 18  1  0
  4 19  1  0
  5 20  1  0
  5 21  1  0
  6 22  1  6
  7 23  1  0
  9 24  1  0
 12 25  1  0
 12 26  1  0
 12 27  1  0
M  END
$$$$

     RDKit          3D

 27 27  0  0  0  0  0  0  0  0999 V2000
   -3.2510   -1.7080   -1.0713 C   0  0  0  0  0  0  0  0  0  0  0  0
   -2.6519   -0.4383   -1.0373 O   0  0  0  0  0  0  0  0  0  0  0  0
   -1.5149   -0.5029   -0.2140 C   0  0  2  0  0  0  0  0  0  0  0  0
   -1.8500    0.4390    0.9509 C   0  0  0  0  0  0  0  0  0  0  0  0
   -0.7888    0.5175    1.9226 N   0  0  0  0  0  0  0  0  0  0  0  0
   -0.3816    0.0640   -1.0135 C   0  0  1  0  0  0  0  0  0  0  0  0
   -0.7102    1.3946   -1.2911 O   0  0  0  0  0  0  0  0  0  0  0  0
    0.9381   -0.0378   -0.3860 C   0  0  0  0  0  0  0  0  0  0  0  0
    1.3974   -0.8364    0.6252 C   0  0  0  0  0  0  0  0  0  0  0  0
    2.7086   -0.5087    0.8201 N   0  0  0  0  0  0  0  0  0  0  0  0
    3.0458    0.4457   -0.0287 N   0  0  0  0  0  0  0  0  0  0  0  0
    4.3793    1.0263   -0.0862 C   0  0  0  0  0  0  0  0  0  0  0  0
    1.9818    0.7320   -0.7570 N   0  0  0  0  0  0  0  0  0  0  0  0
   -4.1529   -1.7103   -1.7079 H   0  0  0  0  0  0  0  0  0  0  0  0
   -3.6134   -1.9007   -0.0253 H   0  0  0  0  0  0  0  0  0  0  0  0
   -2.5663   -2.4932   -1.4038 H   0  0  0  0  0  0  0  0  0  0  0  0
   -1.3878   -1.4972    0.1808 H   0  0  0  0  0  0  0  0  0  0  0  0
   -2.8270    0.1561    1.4023 H   0  0  0  0  0  0  0  0  0  0  0  0
   -2.0115    1.4622    0.5244 H   0  0  0  0  0  0  0  0  0  0  0  0
   -1.1606    0.5198    2.8990 H   0  0  0  0  0  0  0  0  0  0  0  0
   -0.1483    1.3337    1.7720 H   0  0  0  0  0  0  0  0  0  0  0  0
   -0.3078   -0.4186   -2.0288 H   0  0  0  0  0  0  0  0  0  0  0  0
   -0.0760    1.9559   -0.7960 H   0  0  0  0  0  0  0  0  0  0  0  0
    0.8281   -1.5810    1.1544 H   0  0  0  0  0  0  0  0  0  0  0  0
    4.5446    1.3829   -1.1443 H   0  0  0  0  0  0  0  0  0  0  0  0
    5.1357    0.2667    0.1946 H   0  0  0  0  0  0  0  0  0  0  0  0
    4.4410    1.9367    0.5448 H   0  0  0  0  0  0  0  0  0  0  0  0
  1  2  1  0
  2  3  1  0
  3  4  1  0
  4  5  1  0
  3  6  1  0
  6  7  1  0
  6  8  1  0
  8  9  1  0
  9 10  2  0
 10 11  1  0
 11 12  1  0
 11 13  1  0
 13  8  2  0
  1 14  1  0
  1 15  1  0
  1 16  1  0
  3 17  1  1
  4 18  1  0
  4 19  1  0
  5 20  1  0
  5 21  1  0
  6 22  1  6
  7 23  1  0
  9 24  1  0
 12 25  1  0
 12 26  1  0
 12 27  1  0
M  END
$$$$

     RDKit          3D

 27 27  0  0  0  0  0  0  0  0999 V2000
   -2.6070   -2.1581    1.2913 C   0  0  0  0  0  0  0  0  0  0  0  0
   -2.4582   -1.4377    0.1227 O   0  0  0  0  0  0  0  0  0  0  0  0
   -1.3937   -0.5500    0.1428 C   0  0  2  0  0  0  0  0  0  0  0  0
   -2.0067    0.8270    0.0994 C   0  0  0  0  0  0  0  0  0  0  0  0
   -1.0152    1.8757    0.1343 N   0  0  0  0  0  0  0  0  0  0  0  0
   -0.3794   -0.8423   -0.8925 C   0  0  1  0  0  0  0  0  0  0  0  0
   -0.8330   -0.8061   -2.2066 O   0  0  0  0  0  0  0  0  0  0  0  0
    0.8701   -0.0566   -0.7590 C   0  0  0  0  0  0  0  0  0  0  0  0
    1.2276    1.1363   -1.3564 C   0  0  0  0  0  0  0  0  0  0  0  0
    2.4577    1.4497   -0.9113 N   0  0  0  0  0  0  0  0  0  0  0  0
    2.8925    0.5257   -0.0719 N   0  0  0  0  0  0  0  0  0  0  0  0
    4.1873    0.5032    0.6287 C   0  0  0  0  0  0  0  0  0  0  0  0
    1.9279   -0.3743    0.0105 N   0  0  0  0  0  0  0  0  0  0  0  0
   -3.4832   -2.8257    1.1507 H   0  0  0  0  0  0  0  0  0  0  0  0
   -2.8165   -1.5405    2.1776 H   0  0  0  0  0  0  0  0  0  0  0  0
   -1.7362   -2.8319    1.4694 H   0  0  0  0  0  0  0  0  0  0  0  0
   -0.9148   -0.6528    1.1386 H   0  0  0  0  0  0  0  0  0  0  0  0
   -2.6318    0.9808    1.0281 H   0  0  0  0  0  0  0  0  0  0  0  0
   -2.7226    0.9445   -0.7372 H   0  0  0  0  0  0  0  0  0  0  0  0
   -0.7006    1.9734    1.1261 H   0  0  0  0  0  0  0  0  0  0  0  0
   -1.4545    2.7513   -0.1739 H   0  0  0  0  0  0  0  0  0  0  0  0
   -0.1142   -1.9479   -0.7382 H   0  0  0  0  0  0  0  0  0  0  0  0
   -0.4352   -0.0478   -2.7105 H   0  0  0  0  0  0  0  0  0  0  0  0
    0.6540    1.7244   -2.0556 H   0  0  0  0  0  0  0  0  0  0  0  0
    4.3174    1.4436    1.1665 H   0  0  0  0  0  0  0  0  0  0  0  0
    4.9698    0.3121   -0.1447 H   0  0  0  0  0  0  0  0  0  0  0  0
    4.1986   -0.3762    1.3001 H   0  0  0  0  0  0  0  0  0  0  0  0
  1  2  1  0
  2  3  1  0
  3  4  1  0
  4  5  1  0
  3  6  1  0
  6  7  1  0
  6  8  1  0
  8  9  1  0
  9 10  2  0
 10 11  1  0
 11 12  1  0
 11 13  1  0
 13  8  2  0
  1 14  1  0
  1 15  1  0
  1 16  1  0
  3 17  1  1
  4 18  1  0
  4 19  1  0
  5 20  1  0
  5 21  1  0
  6 22  1  1
  7 23  1  0
  9 24  1  0
 12 25  1  0
 12 26  1  0
 12 27  1  0
M  END
$$$$

     RDKit          3D

 27 27  0  0  0  0  0  0  0  0999 V2000
   -2.0020   -2.1520    1.1868 C   0  0  0  0  0  0  0  0  0  0  0  0
   -1.6304   -1.5018    0.0375 O   0  0  0  0  0  0  0  0  0  0  0  0
   -1.4753   -0.1458    0.1481 C   0  0  2  0  0  0  0  0  0  0  0  0
   -2.6750    0.4677   -0.6362 C   0  0  0  0  0  0  0  0  0  0  0  0
   -2.6273    1.8951   -0.5958 N   0  0  0  0  0  0  0  0  0  0  0  0
   -0.2736    0.3845   -0.5307 C   0  0  1  0  0  0  0  0  0  0  0  0
   -0.2890    1.7925   -0.3137 O   0  0  0  0  0  0  0  0  0  0  0  0
    1.0304   -0.0767   -0.0699 C   0  0  0  0  0  0  0  0  0  0  0  0
    1.4550   -1.1468    0.6773 C   0  0  0  0  0  0  0  0  0  0  0  0
    2.8030   -1.0574    0.7865 N   0  0  0  0  0  0  0  0  0  0  0  0
    3.1997    0.0032    0.1473 N   0  0  0  0  0  0  0  0  0  0  0  0
    4.5672    0.5214   -0.0197 C   0  0  0  0  0  0  0  0  0  0  0  0
    2.1718    0.6058   -0.3715 N   0  0  0  0  0  0  0  0  0  0  0  0
   -1.3367   -2.0715    2.0410 H   0  0  0  0  0  0  0  0  0  0  0  0
   -2.0720   -3.2427    0.9341 H   0  0  0  0  0  0  0  0  0  0  0  0
   -3.0309   -1.8774    1.5297 H   0  0  0  0  0  0  0  0  0  0  0  0
   -1.6239    0.2495    1.1838 H   0  0  0  0  0  0  0  0  0  0  0  0
   -2.5928    0.1410   -1.6932 H   0  0  0  0  0  0  0  0  0  0  0  0
   -3.6150    0.0929   -0.2367 H   0  0  0  0  0  0  0  0  0  0  0  0
   -2.2655    2.3152   -1.4782 H   0  0  0  0  0  0  0  0  0  0  0  0
   -3.5125    2.3416   -0.2708 H   0  0  0  0  0  0  0  0  0  0  0  0
   -0.3734    0.2193   -1.6454 H   0  0  0  0  0  0  0  0  0  0  0  0
    0.6403    2.1531   -0.3313 H   0  0  0  0  0  0  0  0  0  0  0  0
    0.8401   -1.9198    1.1003 H   0  0  0  0  0  0  0  0  0  0  0  0
    5.2980   -0.3120   -0.0364 H   0  0  0  0  0  0  0  0  0  0  0  0
    4.7248    1.2327    0.8097 H   0  0  0  0  0  0  0  0  0  0  0  0
    4.6650    1.0884   -0.9664 H   0  0  0  0  0  0  0  0  0  0  0  0
  1  2  1  0
  2  3  1  0
  3  4  1  0
  4  5  1  0
  3  6  1  0
  6  7  1  0
  6  8  1  0
  8  9  1  0
  9 10  2  0
 10 11  1  0
 11 12  1  0
 11 13  1  0
 13  8  2  0
  1 14  1  0
  1 15  1  0
  1 16  1  0
  3 17  1  1
  4 18  1  0
  4 19  1  0
  5 20  1  0
  5 21  1  0
  6 22  1  6
  7 23  1  0
  9 24  1  0
 12 25  1  0
 12 26  1  0
 12 27  1  0
M  END
$$$$

     RDKit          3D

 27 27  0  0  0  0  0  0  0  0999 V2000
    1.9591    2.4445   -0.0636 C   0  0  0  0  0  0  0  0  0  0  0  0
    1.0597    1.3972   -0.2764 O   0  0  0  0  0  0  0  0  0  0  0  0
    1.4249    0.2425    0.3660 C   0  0  2  0  0  0  0  0  0  0  0  0
    1.7010   -0.9139   -0.5700 C   0  0  0  0  0  0  0  0  0  0  0  0
    2.7590   -0.6435   -1.4928 N   0  0  0  0  0  0  0  0  0  0  0  0
    0.4231   -0.2030    1.4066 C   0  0  1  0  0  0  0  0  0  0  0  0
    0.2491    0.7599    2.3997 O   0  0  0  0  0  0  0  0  0  0  0  0
   -0.8968   -0.5140    0.8363 C   0  0  0  0  0  0  0  0  0  0  0  0
   -1.3586   -1.7857    0.5780 C   0  0  0  0  0  0  0  0  0  0  0  0
   -2.5797   -1.6619    0.0712 N   0  0  0  0  0  0  0  0  0  0  0  0
   -2.8991   -0.3864    0.0016 N   0  0  0  0  0  0  0  0  0  0  0  0
   -4.1801    0.1123   -0.5113 C   0  0  0  0  0  0  0  0  0  0  0  0
   -1.8801    0.3202    0.4654 N   0  0  0  0  0  0  0  0  0  0  0  0
    1.5528    3.3254   -0.6363 H   0  0  0  0  0  0  0  0  0  0  0  0
    2.9556    2.2391   -0.4612 H   0  0  0  0  0  0  0  0  0  0  0  0
    1.9929    2.7509    1.0140 H   0  0  0  0  0  0  0  0  0  0  0  0
    2.3816    0.4281    0.9191 H   0  0  0  0  0  0  0  0  0  0  0  0
    0.7498   -1.1910   -1.0837 H   0  0  0  0  0  0  0  0  0  0  0  0
    1.9606   -1.7824    0.0675 H   0  0  0  0  0  0  0  0  0  0  0  0
    3.6256   -1.1214   -1.1589 H   0  0  0  0  0  0  0  0  0  0  0  0
    2.5534   -1.0219   -2.4428 H   0  0  0  0  0  0  0  0  0  0  0  0
    0.8421   -1.1002    1.9207 H   0  0  0  0  0  0  0  0  0  0  0  0
    0.0171    0.3120    3.2625 H   0  0  0  0  0  0  0  0  0  0  0  0
   -0.8073   -2.7207    0.7622 H   0  0  0  0  0  0  0  0  0  0  0  0
   -4.3551    1.1445   -0.1053 H   0  0  0  0  0  0  0  0  0  0  0  0
   -5.0211   -0.5043   -0.1282 H   0  0  0  0  0  0  0  0  0  0  0  0
   -4.2290    0.0738   -1.6096 H   0  0  0  0  0  0  0  0  0  0  0  0
  1  2  1  0
  2  3  1  0
  3  4  1  0
  4  5  1  0
  3  6  1  0
  6  7  1  0
  6  8  1  0
  8  9  1  0
  9 10  2  0
 10 11  1  0
 11 12  1  0
 11 13  1  0
 13  8  2  0
  1 14  1  0
  1 15  1  0
  1 16  1  0
  3 17  1  1
  4 18  1  0
  4 19  1  0
  5 20  1  0
  5 21  1  0
  6 22  1  1
  7 23  1  0
  9 24  1  0
 12 25  1  0
 12 26  1  0
 12 27  1  0
M  END
$$$$

     RDKit          3D

 27 27  0  0  0  0  0  0  0  0999 V2000
   -2.9207   -0.1983   -1.8293 C   0  0  0  0  0  0  0  0  0  0  0  0
   -1.6040    0.0295   -1.3968 O   0  0  0  0  0  0  0  0  0  0  0  0
   -1.5140    0.0310   -0.0049 C   0  0  2  0  0  0  0  0  0  0  0  0
   -1.1235    1.4270    0.4219 C   0  0  0  0  0  0  0  0  0  0  0  0
   -1.0188    1.4663    1.8834 N   0  0  0  0  0  0  0  0  0  0  0  0
   -0.5599   -1.0171    0.5038 C   0  0  1  0  0  0  0  0  0  0  0  0
   -1.0489   -2.2560    0.0664 O   0  0  0  0  0  0  0  0  0  0  0  0
    0.8296   -0.7940    0.1167 C   0  0  0  0  0  0  0  0  0  0  0  0
    1.4079   -1.0298   -1.1092 C   0  0  0  0  0  0  0  0  0  0  0  0
    2.7108   -0.6808   -1.0191 N   0  0  0  0  0  0  0  0  0  0  0  0
    2.9439   -0.2429    0.2136 N   0  0  0  0  0  0  0  0  0  0  0  0
    4.1892    0.2309    0.7537 C   0  0  0  0  0  0  0  0  0  0  0  0
    1.8116   -0.3118    0.8949 N   0  0  0  0  0  0  0  0  0  0  0  0
   -3.6143    0.5988   -1.4446 H   0  0  0  0  0  0  0  0  0  0  0  0
   -3.3167   -1.1552   -1.4371 H   0  0  0  0  0  0  0  0  0  0  0  0
   -2.9297   -0.1339   -2.9249 H   0  0  0  0  0  0  0  0  0  0  0  0
   -2.5368   -0.1533    0.3812 H   0  0  0  0  0  0  0  0  0  0  0  0
   -1.9469    2.1255    0.1669 H   0  0  0  0  0  0  0  0  0  0  0  0
   -0.1865    1.7786   -0.0170 H   0  0  0  0  0  0  0  0  0  0  0  0
   -0.4397    2.2566    2.2143 H   0  0  0  0  0  0  0  0  0  0  0  0
   -1.9791    1.5980    2.2719 H   0  0  0  0  0  0  0  0  0  0  0  0
   -0.6816   -1.0388    1.6223 H   0  0  0  0  0  0  0  0  0  0  0  0
   -1.0177   -2.2885   -0.9302 H   0  0  0  0  0  0  0  0  0  0  0  0
    0.9511   -1.4221   -2.0152 H   0  0  0  0  0  0  0  0  0  0  0  0
    4.8969   -0.5807    1.0034 H   0  0  0  0  0  0  0  0  0  0  0  0
    4.6895    0.8592   -0.0145 H   0  0  0  0  0  0  0  0  0  0  0  0
    4.0083    0.9016    1.6285 H   0  0  0  0  0  0  0  0  0  0  0  0
  1  2  1  0
  2  3  1  0
  3  4  1  0
  4  5  1  0
  3  6  1  0
  6  7  1  0
  6  8  1  0
  8  9  1  0
  9 10  2  0
 10 11  1  0
 11 12  1  0
 11 13  1  0
 13  8  2  0
  1 14  1  0
  1 15  1  0
  1 16  1  0
  3 17  1  1
  4 18  1  0
  4 19  1  0
  5 20  1  0
  5 21  1  0
  6 22  1  1
  7 23  1  0
  9 24  1  0
 12 25  1  0
 12 26  1  0
 12 27  1  0
M  END
$$$$

     RDKit          3D

 27 27  0  0  0  0  0  0  0  0999 V2000
   -1.2079   -1.7679   -0.8696 C   0  0  0  0  0  0  0  0  0  0  0  0
   -1.3561   -0.3914   -1.0437 O   0  0  0  0  0  0  0  0  0  0  0  0
   -1.3180    0.2890    0.1512 C   0  0  2  0  0  0  0  0  0  0  0  0
   -2.6110    1.0919    0.3428 C   0  0  0  0  0  0  0  0  0  0  0  0
   -3.7639    0.2216    0.3511 N   0  0  0  0  0  0  0  0  0  0  0  0
   -0.1872    1.2951    0.2061 C   0  0  1  0  0  0  0  0  0  0  0  0
   -0.2492    1.9182    1.4547 O   0  0  0  0  0  0  0  0  0  0  0  0
    1.1274    0.6812   -0.0446 C   0  0  0  0  0  0  0  0  0  0  0  0
    1.8305    0.7860   -1.2226 C   0  0  0  0  0  0  0  0  0  0  0  0
    2.9609    0.1007   -1.0587 N   0  0  0  0  0  0  0  0  0  0  0  0
    3.0034   -0.4249    0.1521 N   0  0  0  0  0  0  0  0  0  0  0  0
    4.0850   -1.2468    0.7095 C   0  0  0  0  0  0  0  0  0  0  0  0
    1.8822   -0.0695    0.7714 N   0  0  0  0  0  0  0  0  0  0  0  0
   -2.0047   -2.1991   -0.2351 H   0  0  0  0  0  0  0  0  0  0  0  0
   -1.2540   -2.2925   -1.8453 H   0  0  0  0  0  0  0  0  0  0  0  0
   -0.2185   -2.0197   -0.3925 H   0  0  0  0  0  0  0  0  0  0  0  0
   -1.1766   -0.4389    0.9689 H   0  0  0  0  0  0  0  0  0  0  0  0
   -2.6604    1.8326   -0.4678 H   0  0  0  0  0  0  0  0  0  0  0  0
   -2.5368    1.5800    1.3430 H   0  0  0  0  0  0  0  0  0  0  0  0
   -4.4858    0.4936    1.0376 H   0  0  0  0  0  0  0  0  0  0  0  0
   -4.2151    0.2607   -0.5945 H   0  0  0  0  0  0  0  0  0  0  0  0
   -0.4052    2.0618   -0.5648 H   0  0  0  0  0  0  0  0  0  0  0  0
    0.1193    1.2645    2.1036 H   0  0  0  0  0  0  0  0  0  0  0  0
    1.5141    1.3332   -2.1251 H   0  0  0  0  0  0  0  0  0  0  0  0
    4.2371   -1.0295    1.7842 H   0  0  0  0  0  0  0  0  0  0  0  0
    5.0132   -0.9939    0.1886 H   0  0  0  0  0  0  0  0  0  0  0  0
    3.8772   -2.3358    0.5404 H   0  0  0  0  0  0  0  0  0  0  0  0
  1  2  1  0
  2  3  1  0
  3  4  1  0
  4  5  1  0
  3  6  1  0
  6  7  1  0
  6  8  1  0
  8  9  1  0
  9 10  2  0
 10 11  1  0
 11 12  1  0
 11 13  1  0
 13  8  2  0
  1 14  1  0
  1 15  1  0
  1 16  1  0
  3 17  1  1
  4 18  1  0
  4 19  1  0
  5 20  1  0
  5 21  1  0
  6 22  1  6
  7 23  1  0
  9 24  1  0
 12 25  1  0
 12 26  1  0
 12 27  1  0
M  END
$$$$

     RDKit          3D

 27 27  0  0  0  0  0  0  0  0999 V2000
   -2.3669   -2.1187   -0.4689 C   0  0  0  0  0  0  0  0  0  0  0  0
   -1.2838   -1.2606   -0.6269 O   0  0  0  0  0  0  0  0  0  0  0  0
   -1.4962   -0.0832    0.0446 C   0  0  2  0  0  0  0  0  0  0  0  0
   -1.5618    1.0962   -0.9041 C   0  0  0  0  0  0  0  0  0  0  0  0
   -1.7839    2.2786   -0.1325 N   0  0  0  0  0  0  0  0  0  0  0  0
   -0.4931    0.1489    1.1570 C   0  0  1  0  0  0  0  0  0  0  0  0
   -0.6446   -0.9426    2.0448 O   0  0  0  0  0  0  0  0  0  0  0  0
    0.8844    0.2802    0.6836 C   0  0  0  0  0  0  0  0  0  0  0  0
    1.5866    1.4645    0.6050 C   0  0  0  0  0  0  0  0  0  0  0  0
    2.8256    1.1735    0.1204 N   0  0  0  0  0  0  0  0  0  0  0  0
    2.8897   -0.1329   -0.0924 N   0  0  0  0  0  0  0  0  0  0  0  0
    4.0858   -0.7718   -0.6123 C   0  0  0  0  0  0  0  0  0  0  0  0
    1.7279   -0.6680    0.2447 N   0  0  0  0  0  0  0  0  0  0  0  0
   -2.2315   -3.0682   -0.9916 H   0  0  0  0  0  0  0  0  0  0  0  0
   -3.3102   -1.6667   -0.8848 H   0  0  0  0  0  0  0  0  0  0  0  0
   -2.5996   -2.3264    0.5983 H   0  0  0  0  0  0  0  0  0  0  0  0
   -2.4891   -0.1369    0.5383 H   0  0  0  0  0  0  0  0  0  0  0  0
   -2.4651    0.9273   -1.5500 H   0  0  0  0  0  0  0  0  0  0  0  0
   -0.6974    1.1452   -1.5820 H   0  0  0  0  0  0  0  0  0  0  0  0
   -2.7586    2.5791   -0.0458 H   0  0  0  0  0  0  0  0  0  0  0  0
   -1.0841    3.0186   -0.2709 H   0  0  0  0  0  0  0  0  0  0  0  0
   -0.8505    1.0297    1.7290 H   0  0  0  0  0  0  0  0  0  0  0  0
   -0.4652   -1.7896    1.5553 H   0  0  0  0  0  0  0  0  0  0  0  0
    1.2758    2.4685    0.8619 H   0  0  0  0  0  0  0  0  0  0  0  0
    4.3903   -0.2372   -1.5588 H   0  0  0  0  0  0  0  0  0  0  0  0
    4.9384   -0.5592    0.0952 H   0  0  0  0  0  0  0  0  0  0  0  0
    3.9770   -1.8483   -0.7481 H   0  0  0  0  0  0  0  0  0  0  0  0
  1  2  1  0
  2  3  1  0
  3  4  1  0
  4  5  1  0
  3  6  1  0
  6  7  1  0
  6  8  1  0
  8  9  1  0
  9 10  2  0
 10 11  1  0
 11 12  1  0
 11 13  1  0
 13  8  2  0
  1 14  1  0
  1 15  1  0
  1 16  1  0
  3 17  1  1
  4 18  1  0
  4 19  1  0
  5 20  1  0
  5 21  1  0
  6 22  1  1
  7 23  1  0
  9 24  1  0
 12 25  1  0
 12 26  1  0
 12 27  1  0
M  END
$$$$
