
     RDKit          3D

 24 24  0  0  0  0  0  0  0  0999 V2000
   -4.1691    0.5776   -0.4036 C   0  0  0  0  0  0  0  0  0  0  0  0
   -3.7651   -0.5307    0.5615 C   0  0  0  0  0  0  0  0  0  0  0  0
   -2.4030   -0.9538    0.2092 N   0  0  0  0  0  0  0  0  0  0  0  0
   -2.0653   -1.9076   -0.6475 N   0  0  0  0  0  0  0  0  0  0  0  0
   -0.7449   -2.0131   -0.7130 N   0  0  0  0  0  0  0  0  0  0  0  0
   -0.2120   -1.1041    0.1229 C   0  0  0  0  0  0  0  0  0  0  0  0
    1.2411   -0.8632    0.3744 C   0  0  0  0  0  0  0  0  0  0  0  0
    1.7503    0.1344   -0.5554 N   0  0  0  0  0  0  0  0  0  0  0  0
    3.1026    0.5167   -0.4968 C   0  0  0  0  0  0  0  0  0  0  0  0
    4.0081   -0.2206    0.0786 N   0  0  0  0  0  0  0  0  0  0  0  0
    3.5884    1.7422   -1.0633 N   0  0  0  0  0  0  0  0  0  0  0  0
    4.9423    2.0707   -1.0829 C   0  0  0  0  0  0  0  0  0  0  0  0
    6.0835    2.3454   -1.1197 N   0  0  0  0  0  0  0  0  0  0  0  0
   -1.2630   -0.4689    0.6746 N   0  0  0  0  0  0  0  0  0  0  0  0
   -3.3148    1.2836   -0.4272 H   0  0  0  0  0  0  0  0  0  0  0  0
   -5.0198    1.1135    0.0692 H   0  0  0  0  0  0  0  0  0  0  0  0
   -4.4117    0.1418   -1.3721 H   0  0  0  0  0  0  0  0  0  0  0  0
   -3.7791   -0.0806    1.5767 H   0  0  0  0  0  0  0  0  0  0  0  0
   -4.4742   -1.3606    0.5610 H   0  0  0  0  0  0  0  0  0  0  0  0
    1.3293   -0.4674    1.3992 H   0  0  0  0  0  0  0  0  0  0  0  0
    1.8234   -1.8050    0.3163 H   0  0  0  0  0  0  0  0  0  0  0  0
    1.1499    0.5879   -1.2764 H   0  0  0  0  0  0  0  0  0  0  0  0
    3.7337   -1.1172    0.5088 H   0  0  0  0  0  0  0  0  0  0  0  0
    2.8695    2.3789   -1.4626 H   0  0  0  0  0  0  0  0  0  0  0  0
  1  2  1  0
  2  3  1  0
  3  4  1  0
  4  5  2  0
  5  6  1  0
  6  7  1  0
  7  8  1  0
  8  9  1  0
  9 10  2  3
  9 11  1  0
 11 12  1  0
 12 13  3  0
  6 14  2  0
 14  3  1  0
  1 15  1  0
  1 16  1  0
  1 17  1  0
  2 18  1  0
  2 19  1  0
  7 20  1  0
  7 21  1  0
  8 22  1  0
 10 23  1  0
 11 24  1  0
M  END
$$$$

     RDKit          3D

 24 24  0  0  0  0  0  0  0  0999 V2000
   -4.0812    1.0647   -0.0042 C   0  0  0  0  0  0  0  0  0  0  0  0
   -3.2598    0.7782    1.2167 C   0  0  0  0  0  0  0  0  0  0  0  0
   -2.2226   -0.1982    0.9402 N   0  0  0  0  0  0  0  0  0  0  0  0
   -2.3561   -1.5075    1.0645 N   0  0  0  0  0  0  0  0  0  0  0  0
   -1.2340   -2.1208    0.7379 N   0  0  0  0  0  0  0  0  0  0  0  0
   -0.3354   -1.1816    0.3879 C   0  0  0  0  0  0  0  0  0  0  0  0
    1.0625   -1.4325   -0.0507 C   0  0  0  0  0  0  0  0  0  0  0  0
    1.6867   -0.1527   -0.3292 N   0  0  0  0  0  0  0  0  0  0  0  0
    3.0397   -0.1247   -0.7695 C   0  0  0  0  0  0  0  0  0  0  0  0
    3.6432   -1.2012   -1.1378 N   0  0  0  0  0  0  0  0  0  0  0  0
    3.7473    1.1085   -0.8078 N   0  0  0  0  0  0  0  0  0  0  0  0
    4.8246    1.3029   -1.6836 C   0  0  0  0  0  0  0  0  0  0  0  0
    5.7040    1.4600   -2.4193 N   0  0  0  0  0  0  0  0  0  0  0  0
   -0.9796   -0.0075    0.5246 N   0  0  0  0  0  0  0  0  0  0  0  0
   -5.1598    1.2133    0.2238 H   0  0  0  0  0  0  0  0  0  0  0  0
   -3.9853    0.2819   -0.7809 H   0  0  0  0  0  0  0  0  0  0  0  0
   -3.7311    2.0261   -0.4375 H   0  0  0  0  0  0  0  0  0  0  0  0
   -3.9277    0.4156    2.0468 H   0  0  0  0  0  0  0  0  0  0  0  0
   -2.8176    1.7289    1.6033 H   0  0  0  0  0  0  0  0  0  0  0  0
    1.6099   -1.9216    0.7841 H   0  0  0  0  0  0  0  0  0  0  0  0
    1.0872   -2.0513   -0.9778 H   0  0  0  0  0  0  0  0  0  0  0  0
    1.1429    0.7539   -0.2069 H   0  0  0  0  0  0  0  0  0  0  0  0
    3.1231   -2.0917   -1.1073 H   0  0  0  0  0  0  0  0  0  0  0  0
    3.4190    1.8573   -0.1483 H   0  0  0  0  0  0  0  0  0  0  0  0
  1  2  1  0
  2  3  1  0
  3  4  1  0
  4  5  2  0
  5  6  1  0
  6  7  1  0
  7  8  1  0
  8  9  1  0
  9 10  2  3
  9 11  1  0
 11 12  1  0
 12 13  3  0
  6 14  2  0
 14  3  1  0
  1 15  1  0
  1 16  1  0
  1 17  1  0
  2 18  1  0
  2 19  1  0
  7 20  1  0
  7 21  1  0
  8 22  1  0
 10 23  1  0
 11 24  1  0
M  END
$$$$

     RDKit          3D

 24 24  0  0  0  0  0  0  0  0999 V2000
   -4.4791   -1.3188    0.3031 C   0  0  0  0  0  0  0  0  0  0  0  0
   -3.7591    0.0188    0.5102 C   0  0  0  0  0  0  0  0  0  0  0  0
   -2.3443   -0.2237    0.6511 N   0  0  0  0  0  0  0  0  0  0  0  0
   -1.7506   -0.4477    1.8087 N   0  0  0  0  0  0  0  0  0  0  0  0
   -0.4450   -0.6326    1.5890 N   0  0  0  0  0  0  0  0  0  0  0  0
   -0.2374   -0.5188    0.2674 C   0  0  0  0  0  0  0  0  0  0  0  0
    1.0857   -0.6592   -0.3770 C   0  0  0  0  0  0  0  0  0  0  0  0
    1.7560    0.6252   -0.4516 N   0  0  0  0  0  0  0  0  0  0  0  0
    3.0488    0.6963   -1.0425 C   0  0  0  0  0  0  0  0  0  0  0  0
    3.4231   -0.3136   -1.7557 N   0  0  0  0  0  0  0  0  0  0  0  0
    3.8951    1.8267   -0.8593 N   0  0  0  0  0  0  0  0  0  0  0  0
    5.2222    1.8273   -1.3398 C   0  0  0  0  0  0  0  0  0  0  0  0
    6.3193    1.8208   -1.7184 N   0  0  0  0  0  0  0  0  0  0  0  0
   -1.4318   -0.2642   -0.2999 N   0  0  0  0  0  0  0  0  0  0  0  0
   -5.5589   -1.1454    0.1672 H   0  0  0  0  0  0  0  0  0  0  0  0
   -4.0145   -1.8962   -0.5070 H   0  0  0  0  0  0  0  0  0  0  0  0
   -4.3758   -1.8842    1.2598 H   0  0  0  0  0  0  0  0  0  0  0  0
   -3.9764    0.6943   -0.3424 H   0  0  0  0  0  0  0  0  0  0  0  0
   -4.1467    0.4817    1.4381 H   0  0  0  0  0  0  0  0  0  0  0  0
    0.9100   -1.0972   -1.3876 H   0  0  0  0  0  0  0  0  0  0  0  0
    1.7265   -1.3364    0.2466 H   0  0  0  0  0  0  0  0  0  0  0  0
    1.2968    1.4830   -0.0777 H   0  0  0  0  0  0  0  0  0  0  0  0
    4.3286   -0.3908   -2.2364 H   0  0  0  0  0  0  0  0  0  0  0  0
    3.5075    2.6549   -0.3599 H   0  0  0  0  0  0  0  0  0  0  0  0
  1  2  1  0
  2  3  1  0
  3  4  1  0
  4  5  2  0
  5  6  1  0
  6  7  1  0
  7  8  1  0
  8  9  1  0
  9 10  2  3
  9 11  1  0
 11 12  1  0
 12 13  3  0
  6 14  2  0
 14  3  1  0
  1 15  1  0
  1 16  1  0
  1 17  1  0
  2 18  1  0
  2 19  1  0
  7 20  1  0
  7 21  1  0
  8 22  1  0
 10 23  1  0
 11 24  1  0
M  END
$$$$

     RDKit          3D

 24 24  0  0  0  0  0  0  0  0999 V2000
   -4.6248   -0.5133    0.3816 C   0  0  0  0  0  0  0  0  0  0  0  0
   -3.8974    0.3475   -0.6083 C   0  0  0  0  0  0  0  0  0  0  0  0
   -2.4481    0.1077   -0.5711 N   0  0  0  0  0  0  0  0  0  0  0  0
   -1.8317   -0.7946   -1.3133 N   0  0  0  0  0  0  0  0  0  0  0  0
   -0.5369   -0.7579   -1.0422 N   0  0  0  0  0  0  0  0  0  0  0  0
   -0.3255    0.1877   -0.1079 C   0  0  0  0  0  0  0  0  0  0  0  0
    0.9873    0.5904    0.5131 C   0  0  0  0  0  0  0  0  0  0  0  0
    2.0702   -0.1758   -0.0159 N   0  0  0  0  0  0  0  0  0  0  0  0
    3.3776    0.0835    0.4686 C   0  0  0  0  0  0  0  0  0  0  0  0
    3.5508    0.9187    1.4253 N   0  0  0  0  0  0  0  0  0  0  0  0
    4.5278   -0.5700   -0.0876 N   0  0  0  0  0  0  0  0  0  0  0  0
    5.7278   -0.5309    0.6091 C   0  0  0  0  0  0  0  0  0  0  0  0
    6.7323   -0.4782    1.1970 N   0  0  0  0  0  0  0  0  0  0  0  0
   -1.5392    0.6996    0.1555 N   0  0  0  0  0  0  0  0  0  0  0  0
   -5.4257    0.0942    0.8428 H   0  0  0  0  0  0  0  0  0  0  0  0
   -3.9770   -0.8718    1.2076 H   0  0  0  0  0  0  0  0  0  0  0  0
   -5.1185   -1.3835   -0.1058 H   0  0  0  0  0  0  0  0  0  0  0  0
   -4.2698    0.0555   -1.6244 H   0  0  0  0  0  0  0  0  0  0  0  0
   -4.1051    1.4080   -0.4670 H   0  0  0  0  0  0  0  0  0  0  0  0
    1.1776    1.6843    0.3233 H   0  0  0  0  0  0  0  0  0  0  0  0
    0.8996    0.4664    1.5922 H   0  0  0  0  0  0  0  0  0  0  0  0
    1.9018   -0.9032   -0.7366 H   0  0  0  0  0  0  0  0  0  0  0  0
    2.7191    1.3926    1.8289 H   0  0  0  0  0  0  0  0  0  0  0  0
    4.4279   -1.0566   -1.0016 H   0  0  0  0  0  0  0  0  0  0  0  0
  1  2  1  0
  2  3  1  0
  3  4  1  0
  4  5  2  0
  5  6  1  0
  6  7  1  0
  7  8  1  0
  8  9  1  0
  9 10  2  3
  9 11  1  0
 11 12  1  0
 12 13  3  0
  6 14  2  0
 14  3  1  0
  1 15  1  0
  1 16  1  0
  1 17  1  0
  2 18  1  0
  2 19  1  0
  7 20  1  0
  7 21  1  0
  8 22  1  0
 10 23  1  0
 11 24  1  0
M  END
$$$$

     RDKit          3D

 24 24  0  0  0  0  0  0  0  0999 V2000
   -4.1836    0.7488    0.6136 C   0  0  0  0  0  0  0  0  0  0  0  0
   -3.5926    0.3176   -0.6979 C   0  0  0  0  0  0  0  0  0  0  0  0
   -2.4169   -0.5076   -0.5473 N   0  0  0  0  0  0  0  0  0  0  0  0
   -2.4094   -1.8251   -0.4567 N   0  0  0  0  0  0  0  0  0  0  0  0
   -1.1334   -2.2008   -0.3288 N   0  0  0  0  0  0  0  0  0  0  0  0
   -0.3399   -1.1227   -0.3387 C   0  0  0  0  0  0  0  0  0  0  0  0
    1.1242   -1.1690   -0.2182 C   0  0  0  0  0  0  0  0  0  0  0  0
    1.7342    0.1393   -0.2597 N   0  0  0  0  0  0  0  0  0  0  0  0
    3.1491    0.2245   -0.1523 C   0  0  0  0  0  0  0  0  0  0  0  0
    3.8287   -0.8415   -0.0395 N   0  0  0  0  0  0  0  0  0  0  0  0
    3.8376    1.4693   -0.1667 N   0  0  0  0  0  0  0  0  0  0  0  0
    5.2125    1.5441   -0.4155 C   0  0  0  0  0  0  0  0  0  0  0  0
    6.3560    1.6138   -0.6266 N   0  0  0  0  0  0  0  0  0  0  0  0
   -1.1773   -0.0689   -0.4778 N   0  0  0  0  0  0  0  0  0  0  0  0
   -5.3095    0.7473    0.5859 H   0  0  0  0  0  0  0  0  0  0  0  0
   -3.8334    1.7738    0.8997 H   0  0  0  0  0  0  0  0  0  0  0  0
   -3.9111    0.0648    1.4447 H   0  0  0  0  0  0  0  0  0  0  0  0
   -3.3737    1.2159   -1.3166 H   0  0  0  0  0  0  0  0  0  0  0  0
   -4.3923   -0.2353   -1.2599 H   0  0  0  0  0  0  0  0  0  0  0  0
    1.3811   -1.6514    0.7442 H   0  0  0  0  0  0  0  0  0  0  0  0
    1.5081   -1.8032   -1.0444 H   0  0  0  0  0  0  0  0  0  0  0  0
    1.1851    1.0209   -0.3646 H   0  0  0  0  0  0  0  0  0  0  0  0
    3.4359   -1.8060   -0.0172 H   0  0  0  0  0  0  0  0  0  0  0  0
    3.3204    2.3511    0.0101 H   0  0  0  0  0  0  0  0  0  0  0  0
  1  2  1  0
  2  3  1  0
  3  4  1  0
  4  5  2  0
  5  6  1  0
  6  7  1  0
  7  8  1  0
  8  9  1  0
  9 10  2  3
  9 11  1  0
 11 12  1  0
 12 13  3  0
  6 14  2  0
 14  3  1  0
  1 15  1  0
  1 16  1  0
  1 17  1  0
  2 18  1  0
  2 19  1  0
  7 20  1  0
  7 21  1  0
  8 22  1  0
 10 23  1  0
 11 24  1  0
M  END
$$$$

     RDKit          3D

 24 24  0  0  0  0  0  0  0  0999 V2000
   -1.5361   -3.7290   -1.3646 C   0  0  0  0  0  0  0  0  0  0  0  0
   -2.2739   -2.4868   -1.7826 C   0  0  0  0  0  0  0  0  0  0  0  0
   -1.4648   -1.2858   -1.6125 N   0  0  0  0  0  0  0  0  0  0  0  0
   -0.6717   -0.7934   -2.5444 N   0  0  0  0  0  0  0  0  0  0  0  0
   -0.0855    0.2991   -2.0644 N   0  0  0  0  0  0  0  0  0  0  0  0
   -0.5129    0.5054   -0.8053 C   0  0  0  0  0  0  0  0  0  0  0  0
   -0.1041    1.6178    0.0914 C   0  0  0  0  0  0  0  0  0  0  0  0
    1.0509    1.2704    0.8697 N   0  0  0  0  0  0  0  0  0  0  0  0
    1.5700    2.2309    1.7807 C   0  0  0  0  0  0  0  0  0  0  0  0
    0.8848    3.3154    1.9938 N   0  0  0  0  0  0  0  0  0  0  0  0
    2.7980    2.0590    2.4652 N   0  0  0  0  0  0  0  0  0  0  0  0
    3.5721    3.1540    2.8517 C   0  0  0  0  0  0  0  0  0  0  0  0
    4.1924    4.0580    3.1803 N   0  0  0  0  0  0  0  0  0  0  0  0
   -1.3711   -0.5006   -0.5559 N   0  0  0  0  0  0  0  0  0  0  0  0
   -1.6013   -3.8958   -0.2630 H   0  0  0  0  0  0  0  0  0  0  0  0
   -0.4575   -3.6825   -1.6222 H   0  0  0  0  0  0  0  0  0  0  0  0
   -1.9359   -4.6227   -1.8869 H   0  0  0  0  0  0  0  0  0  0  0  0
   -2.6799   -2.5350   -2.7974 H   0  0  0  0  0  0  0  0  0  0  0  0
   -3.1580   -2.3905   -1.0904 H   0  0  0  0  0  0  0  0  0  0  0  0
   -0.9918    1.8708    0.7071 H   0  0  0  0  0  0  0  0  0  0  0  0
    0.1624    2.5025   -0.5384 H   0  0  0  0  0  0  0  0  0  0  0  0
    1.5366    0.3358    0.8008 H   0  0  0  0  0  0  0  0  0  0  0  0
   -0.0209    3.4925    1.5194 H   0  0  0  0  0  0  0  0  0  0  0  0
    3.0982    1.0719    2.6679 H   0  0  0  0  0  0  0  0  0  0  0  0
  1  2  1  0
  2  3  1  0
  3  4  1  0
  4  5  2  0
  5  6  1  0
  6  7  1  0
  7  8  1  0
  8  9  1  0
  9 10  2  3
  9 11  1  0
 11 12  1  0
 12 13  3  0
  6 14  2  0
 14  3  1  0
  1 15  1  0
  1 16  1  0
  1 17  1  0
  2 18  1  0
  2 19  1  0
  7 20  1  0
  7 21  1  0
  8 22  1  0
 10 23  1  0
 11 24  1  0
M  END
$$$$

     RDKit          3D

 24 24  0  0  0  0  0  0  0  0999 V2000
   -3.6593   -1.2553    1.6437 C   0  0  0  0  0  0  0  0  0  0  0  0
   -3.1016   -0.2304    0.6439 C   0  0  0  0  0  0  0  0  0  0  0  0
   -1.7565    0.1379    1.0321 N   0  0  0  0  0  0  0  0  0  0  0  0
   -1.4680    1.1415    1.8382 N   0  0  0  0  0  0  0  0  0  0  0  0
   -0.1572    1.2067    1.9921 N   0  0  0  0  0  0  0  0  0  0  0  0
    0.4172    0.2222    1.2689 C   0  0  0  0  0  0  0  0  0  0  0  0
    1.8782   -0.0348    1.1866 C   0  0  0  0  0  0  0  0  0  0  0  0
    2.4660    0.6993    0.0853 N   0  0  0  0  0  0  0  0  0  0  0  0
    2.1091    0.4446   -1.2540 C   0  0  0  0  0  0  0  0  0  0  0  0
    1.0742   -0.2466   -1.5594 N   0  0  0  0  0  0  0  0  0  0  0  0
    2.9182    0.9547   -2.3200 N   0  0  0  0  0  0  0  0  0  0  0  0
    3.1394    0.2389   -3.4476 C   0  0  0  0  0  0  0  0  0  0  0  0
    3.3211   -0.4117   -4.4457 N   0  0  0  0  0  0  0  0  0  0  0  0
   -0.6016   -0.4160    0.6904 N   0  0  0  0  0  0  0  0  0  0  0  0
   -3.8568   -0.7988    2.6200 H   0  0  0  0  0  0  0  0  0  0  0  0
   -4.6384   -1.6076    1.2627 H   0  0  0  0  0  0  0  0  0  0  0  0
   -2.9884   -2.1327    1.7076 H   0  0  0  0  0  0  0  0  0  0  0  0
   -3.7343    0.6711    0.6361 H   0  0  0  0  0  0  0  0  0  0  0  0
   -3.1404   -0.6634   -0.3711 H   0  0  0  0  0  0  0  0  0  0  0  0
    2.3892    0.2729    2.1191 H   0  0  0  0  0  0  0  0  0  0  0  0
    2.0805   -1.1166    0.9576 H   0  0  0  0  0  0  0  0  0  0  0  0
    3.1832    1.4461    0.3319 H   0  0  0  0  0  0  0  0  0  0  0  0
    0.8017   -0.4408   -2.5369 H   0  0  0  0  0  0  0  0  0  0  0  0
    3.3244    1.9187   -2.1568 H   0  0  0  0  0  0  0  0  0  0  0  0
  1  2  1  0
  2  3  1  0
  3  4  1  0
  4  5  2  0
  5  6  1  0
  6  7  1  0
  7  8  1  0
  8  9  1  0
  9 10  2  3
  9 11  1  0
 11 12  1  0
 12 13  3  0
  6 14  2  0
 14  3  1  0
  1 15  1  0
  1 16  1  0
  1 17  1  0
  2 18  1  0
  2 19  1  0
  7 20  1  0
  7 21  1  0
  8 22  1  0
 10 23  1  0
 11 24  1  0
M  END
$$$$

     RDKit          3D

 24 24  0  0  0  0  0  0  0  0999 V2000
    4.1797    1.3060    1.4924 C   0  0  0  0  0  0  0  0  0  0  0  0
    3.2822    0.1433    1.8598 C   0  0  0  0  0  0  0  0  0  0  0  0
    2.3888   -0.1541    0.7654 N   0  0  0  0  0  0  0  0  0  0  0  0
    2.5984   -0.9829   -0.2284 N   0  0  0  0  0  0  0  0  0  0  0  0
    1.5594   -1.0002   -1.0437 N   0  0  0  0  0  0  0  0  0  0  0  0
    0.6656   -0.1476   -0.5376 C   0  0  0  0  0  0  0  0  0  0  0  0
   -0.6787    0.2238   -1.0445 C   0  0  0  0  0  0  0  0  0  0  0  0
   -1.6944   -0.6541   -0.4989 N   0  0  0  0  0  0  0  0  0  0  0  0
   -3.0719   -0.5290   -0.8132 C   0  0  0  0  0  0  0  0  0  0  0  0
   -3.4986    0.6290   -1.2530 N   0  0  0  0  0  0  0  0  0  0  0  0
   -4.0015   -1.6115   -0.6682 N   0  0  0  0  0  0  0  0  0  0  0  0
   -5.2114   -1.6147   -1.3788 C   0  0  0  0  0  0  0  0  0  0  0  0
   -6.2297   -1.6079   -1.9559 N   0  0  0  0  0  0  0  0  0  0  0  0
    1.1960    0.3601    0.5728 N   0  0  0  0  0  0  0  0  0  0  0  0
    4.3126    1.2841    0.3969 H   0  0  0  0  0  0  0  0  0  0  0  0
    3.6449    2.2405    1.8065 H   0  0  0  0  0  0  0  0  0  0  0  0
    5.1419    1.1904    2.0218 H   0  0  0  0  0  0  0  0  0  0  0  0
    2.7094    0.3851    2.7790 H   0  0  0  0  0  0  0  0  0  0  0  0
    3.9119   -0.7514    2.0498 H   0  0  0  0  0  0  0  0  0  0  0  0
   -0.9034    1.2982   -0.8173 H   0  0  0  0  0  0  0  0  0  0  0  0
   -0.6810    0.0928   -2.1503 H   0  0  0  0  0  0  0  0  0  0  0  0
   -1.4002   -1.4106    0.1529 H   0  0  0  0  0  0  0  0  0  0  0  0
   -4.5048    0.7600   -1.4946 H   0  0  0  0  0  0  0  0  0  0  0  0
   -3.7153   -2.3721   -0.0130 H   0  0  0  0  0  0  0  0  0  0  0  0
  1  2  1  0
  2  3  1  0
  3  4  1  0
  4  5  2  0
  5  6  1  0
  6  7  1  0
  7  8  1  0
  8  9  1  0
  9 10  2  3
  9 11  1  0
 11 12  1  0
 12 13  3  0
  6 14  2  0
 14  3  1  0
  1 15  1  0
  1 16  1  0
  1 17  1  0
  2 18  1  0
  2 19  1  0
  7 20  1  0
  7 21  1  0
  8 22  1  0
 10 23  1  0
 11 24  1  0
M  END
$$$$
