
     RDKit          3D

 29 30  0  0  0  0  0  0  0  0999 V2000
    4.4805    0.5643   -0.1283 C   0  0  0  0  0  0  0  0  0  0  0  0
    3.6792   -0.6814   -0.4128 C   0  0  0  0  0  0  0  0  0  0  0  0
    2.3993   -0.5391    0.2548 N   0  0  0  0  0  0  0  0  0  0  0  0
    2.1871   -0.9476    1.4952 N   0  0  0  0  0  0  0  0  0  0  0  0
    0.9364   -0.6635    1.7682 N   0  0  0  0  0  0  0  0  0  0  0  0
    0.3507   -0.0766    0.7092 C   0  0  0  0  0  0  0  0  0  0  0  0
   -1.0615    0.3554    0.7266 C   0  0  1  0  0  0  0  0  0  0  0  0
   -1.2586    1.7943    0.3798 C   0  0  0  0  0  0  0  0  0  0  0  0
   -2.5687    1.9012   -0.2220 N   0  0  0  0  0  0  0  0  0  0  0  0
   -3.1035    0.5720   -0.3389 C   0  0  0  0  0  0  0  0  0  0  0  0
   -1.8676   -0.3000   -0.3979 C   0  0  2  0  0  0  0  0  0  0  0  0
   -2.1503   -1.7328   -0.0528 C   0  0  0  0  0  0  0  0  0  0  0  0
   -2.8717   -2.3409   -1.0458 O   0  0  0  0  0  0  0  0  0  0  0  0
    1.2784   -0.0049   -0.2317 N   0  0  0  0  0  0  0  0  0  0  0  0
    4.1037    1.3574   -0.7976 H   0  0  0  0  0  0  0  0  0  0  0  0
    5.5642    0.3561   -0.2561 H   0  0  0  0  0  0  0  0  0  0  0  0
    4.2327    0.8878    0.9149 H   0  0  0  0  0  0  0  0  0  0  0  0
    3.4565   -0.7747   -1.4980 H   0  0  0  0  0  0  0  0  0  0  0  0
    4.2097   -1.5546   -0.0175 H   0  0  0  0  0  0  0  0  0  0  0  0
   -1.5664    0.1497    1.6733 H   0  0  0  0  0  0  0  0  0  0  0  0
   -0.5279    2.1066   -0.4155 H   0  0  0  0  0  0  0  0  0  0  0  0
   -1.1057    2.4922    1.2233 H   0  0  0  0  0  0  0  0  0  0  0  0
   -2.5538    2.3379   -1.1696 H   0  0  0  0  0  0  0  0  0  0  0  0
   -3.5955    0.3390    0.6459 H   0  0  0  0  0  0  0  0  0  0  0  0
   -3.7797    0.4266   -1.1900 H   0  0  0  0  0  0  0  0  0  0  0  0
   -1.3829   -0.1465   -1.3571 H   0  0  0  0  0  0  0  0  0  0  0  0
   -1.1761   -2.2516    0.0333 H   0  0  0  0  0  0  0  0  0  0  0  0
   -2.6196   -1.7581    0.9432 H   0  0  0  0  0  0  0  0  0  0  0  0
   -3.6891   -1.8681   -1.3151 H   0  0  0  0  0  0  0  0  0  0  0  0
  1  2  1  0
  2  3  1  0
  3  4  1  0
  4  5  2  0
  5  6  1  0
  6  7  1  0
  7  8  1  0
  8  9  1  0
  9 10  1  0
 10 11  1  0
 11 12  1  0
 12 13  1  0
  6 14  2  0
 14  3  1  0
 11  7  1  0
  1 15  1  0
  1 16  1  0
  1 17  1  0
  2 18  1  0
  2 19  1  0
  7 20  1  1
  8 21  1  0
  8 22  1  0
  9 23  1  0
 10 24  1  0
 10 25  1  0
 11 26  1  6
 12 27  1  0
 12 28  1  0
 13 29  1  0
M  END
$$$$

     RDKit          3D

 29 30  0  0  0  0  0  0  0  0999 V2000
    4.5919    0.0610   -0.8648 C   0  0  0  0  0  0  0  0  0  0  0  0
    3.9479   -1.0410   -0.0183 C   0  0  0  0  0  0  0  0  0  0  0  0
    2.5616   -0.7055    0.2232 N   0  0  0  0  0  0  0  0  0  0  0  0
    2.1430   -0.0019    1.2586 N   0  0  0  0  0  0  0  0  0  0  0  0
    0.8290    0.1212    1.1761 N   0  0  0  0  0  0  0  0  0  0  0  0
    0.4052   -0.5139    0.0712 C   0  0  0  0  0  0  0  0  0  0  0  0
   -1.0272   -0.5716   -0.3253 C   0  0  1  0  0  0  0  0  0  0  0  0
   -1.8808   -1.1136    0.8010 C   0  0  0  0  0  0  0  0  0  0  0  0
   -2.2355   -0.0215    1.6530 N   0  0  0  0  0  0  0  0  0  0  0  0
   -1.9692    1.2007    0.9628 C   0  0  0  0  0  0  0  0  0  0  0  0
   -1.5297    0.8520   -0.4319 C   0  0  2  0  0  0  0  0  0  0  0  0
   -2.7770    0.9388   -1.3226 C   0  0  0  0  0  0  0  0  0  0  0  0
   -3.7885    0.1540   -0.7835 O   0  0  0  0  0  0  0  0  0  0  0  0
    1.4910   -1.0166   -0.5014 N   0  0  0  0  0  0  0  0  0  0  0  0
    4.0528    0.0905   -1.8421 H   0  0  0  0  0  0  0  0  0  0  0  0
    5.6666   -0.0782   -0.9623 H   0  0  0  0  0  0  0  0  0  0  0  0
    4.3664    1.0113   -0.3140 H   0  0  0  0  0  0  0  0  0  0  0  0
    4.4976   -1.0502    0.9452 H   0  0  0  0  0  0  0  0  0  0  0  0
    4.0815   -1.9813   -0.5734 H   0  0  0  0  0  0  0  0  0  0  0  0
   -1.1728   -1.1407   -1.2654 H   0  0  0  0  0  0  0  0  0  0  0  0
   -2.7768   -1.6180    0.3510 H   0  0  0  0  0  0  0  0  0  0  0  0
   -1.2635   -1.8861    1.3397 H   0  0  0  0  0  0  0  0  0  0  0  0
   -3.2599   -0.1356    1.8942 H   0  0  0  0  0  0  0  0  0  0  0  0
   -2.9273    1.7977    0.9447 H   0  0  0  0  0  0  0  0  0  0  0  0
   -1.2391    1.8496    1.4933 H   0  0  0  0  0  0  0  0  0  0  0  0
   -0.7386    1.5266   -0.8118 H   0  0  0  0  0  0  0  0  0  0  0  0
   -3.0654    1.9998   -1.3553 H   0  0  0  0  0  0  0  0  0  0  0  0
   -2.5507    0.5395   -2.3353 H   0  0  0  0  0  0  0  0  0  0  0  0
   -4.4326    0.7330   -0.2738 H   0  0  0  0  0  0  0  0  0  0  0  0
  1  2  1  0
  2  3  1  0
  3  4  1  0
  4  5  2  0
  5  6  1  0
  6  7  1  0
  7  8  1  0
  8  9  1  0
  9 10  1  0
 10 11  1  0
 11 12  1  0
 12 13  1  0
  6 14  2  0
 14  3  1  0
 11  7  1  0
  1 15  1  0
  1 16  1  0
  1 17  1  0
  2 18  1  0
  2 19  1  0
  7 20  1  6
  8 21  1  0
  8 22  1  0
  9 23  1  0
 10 24  1  0
 10 25  1  0
 11 26  1  6
 12 27  1  0
 12 28  1  0
 13 29  1  0
M  END
$$$$

     RDKit          3D

 29 30  0  0  0  0  0  0  0  0999 V2000
    4.7544   -0.1375   -0.2789 C   0  0  0  0  0  0  0  0  0  0  0  0
    3.8033   -0.2779    0.8842 C   0  0  0  0  0  0  0  0  0  0  0  0
    2.4407   -0.4709    0.4324 N   0  0  0  0  0  0  0  0  0  0  0  0
    1.9057   -1.6585    0.1993 N   0  0  0  0  0  0  0  0  0  0  0  0
    0.6422   -1.4560   -0.2005 N   0  0  0  0  0  0  0  0  0  0  0  0
    0.3847   -0.1383   -0.2179 C   0  0  0  0  0  0  0  0  0  0  0  0
   -0.9212    0.4800   -0.6105 C   0  0  1  0  0  0  0  0  0  0  0  0
   -1.3165    0.0074   -2.0087 C   0  0  0  0  0  0  0  0  0  0  0  0
   -1.9888   -1.2403   -1.6952 N   0  0  0  0  0  0  0  0  0  0  0  0
   -2.9781   -0.7657   -0.7150 C   0  0  0  0  0  0  0  0  0  0  0  0
   -2.0456   -0.0363    0.2569 C   0  0  2  0  0  0  0  0  0  0  0  0
   -2.8636    1.1148    0.8299 C   0  0  0  0  0  0  0  0  0  0  0  0
   -2.0804    1.9506    1.6067 O   0  0  0  0  0  0  0  0  0  0  0  0
    1.5208    0.4622    0.1808 N   0  0  0  0  0  0  0  0  0  0  0  0
    4.2792   -0.5933   -1.1600 H   0  0  0  0  0  0  0  0  0  0  0  0
    5.7032   -0.6372    0.0036 H   0  0  0  0  0  0  0  0  0  0  0  0
    4.9263    0.9452   -0.4538 H   0  0  0  0  0  0  0  0  0  0  0  0
    4.0930   -1.1482    1.5054 H   0  0  0  0  0  0  0  0  0  0  0  0
    3.8141    0.6184    1.5414 H   0  0  0  0  0  0  0  0  0  0  0  0
   -0.8902    1.5714   -0.5448 H   0  0  0  0  0  0  0  0  0  0  0  0
   -1.9706    0.7467   -2.4872 H   0  0  0  0  0  0  0  0  0  0  0  0
   -0.4096   -0.2314   -2.6041 H   0  0  0  0  0  0  0  0  0  0  0  0
   -2.4620   -1.6540   -2.5276 H   0  0  0  0  0  0  0  0  0  0  0  0
   -3.5180   -1.5817   -0.2397 H   0  0  0  0  0  0  0  0  0  0  0  0
   -3.5953   -0.0090   -1.2072 H   0  0  0  0  0  0  0  0  0  0  0  0
   -1.7133   -0.7216    1.0419 H   0  0  0  0  0  0  0  0  0  0  0  0
   -3.6818    0.7194    1.4647 H   0  0  0  0  0  0  0  0  0  0  0  0
   -3.2640    1.7183   -0.0035 H   0  0  0  0  0  0  0  0  0  0  0  0
   -2.5685    2.4233    2.3054 H   0  0  0  0  0  0  0  0  0  0  0  0
  1  2  1  0
  2  3  1  0
  3  4  1  0
  4  5  2  0
  5  6  1  0
  6  7  1  0
  7  8  1  0
  8  9  1  0
  9 10  1  0
 10 11  1  0
 11 12  1  0
 12 13  1  0
  6 14  2  0
 14  3  1  0
 11  7  1  0
  1 15  1  0
  1 16  1  0
  1 17  1  0
  2 18  1  0
  2 19  1  0
  7 20  1  6
  8 21  1  0
  8 22  1  0
  9 23  1  0
 10 24  1  0
 10 25  1  0
 11 26  1  1
 12 27  1  0
 12 28  1  0
 13 29  1  0
M  END
$$$$

     RDKit          3D

 29 30  0  0  0  0  0  0  0  0999 V2000
    3.9603    1.0762   -1.0675 C   0  0  0  0  0  0  0  0  0  0  0  0
    3.7104   -0.2213   -0.2965 C   0  0  0  0  0  0  0  0  0  0  0  0
    2.3538   -0.6659   -0.4556 N   0  0  0  0  0  0  0  0  0  0  0  0
    1.9031   -1.4731   -1.4012 N   0  0  0  0  0  0  0  0  0  0  0  0
    0.6238   -1.6741   -1.2557 N   0  0  0  0  0  0  0  0  0  0  0  0
    0.2027   -0.9820   -0.1812 C   0  0  0  0  0  0  0  0  0  0  0  0
   -1.1969   -0.9805    0.2777 C   0  0  1  0  0  0  0  0  0  0  0  0
   -1.3672   -1.2893    1.7235 C   0  0  0  0  0  0  0  0  0  0  0  0
   -2.1431   -0.2181    2.3210 N   0  0  0  0  0  0  0  0  0  0  0  0
   -2.8339    0.4154    1.1902 C   0  0  0  0  0  0  0  0  0  0  0  0
   -1.7035    0.4514    0.1744 C   0  0  2  0  0  0  0  0  0  0  0  0
   -2.2815    0.7369   -1.1904 C   0  0  0  0  0  0  0  0  0  0  0  0
   -2.7135    2.0624   -1.1818 O   0  0  0  0  0  0  0  0  0  0  0  0
    1.2860   -0.3698    0.2939 N   0  0  0  0  0  0  0  0  0  0  0  0
    4.5288    1.7905   -0.4512 H   0  0  0  0  0  0  0  0  0  0  0  0
    4.5178    0.8814   -2.0078 H   0  0  0  0  0  0  0  0  0  0  0  0
    2.9557    1.5051   -1.3204 H   0  0  0  0  0  0  0  0  0  0  0  0
    3.9793   -0.0903    0.7738 H   0  0  0  0  0  0  0  0  0  0  0  0
    4.4213   -0.9633   -0.7105 H   0  0  0  0  0  0  0  0  0  0  0  0
   -1.8459   -1.5944   -0.3410 H   0  0  0  0  0  0  0  0  0  0  0  0
   -2.0101   -2.2130    1.8211 H   0  0  0  0  0  0  0  0  0  0  0  0
   -0.4382   -1.4785    2.2763 H   0  0  0  0  0  0  0  0  0  0  0  0
   -1.4687    0.4861    2.6899 H   0  0  0  0  0  0  0  0  0  0  0  0
   -3.6176   -0.3006    0.8725 H   0  0  0  0  0  0  0  0  0  0  0  0
   -3.2060    1.4078    1.4430 H   0  0  0  0  0  0  0  0  0  0  0  0
   -0.9487    1.1676    0.4979 H   0  0  0  0  0  0  0  0  0  0  0  0
   -1.5772    0.5824   -2.0054 H   0  0  0  0  0  0  0  0  0  0  0  0
   -3.1492    0.0836   -1.3539 H   0  0  0  0  0  0  0  0  0  0  0  0
   -1.9417    2.6886   -1.1353 H   0  0  0  0  0  0  0  0  0  0  0  0
  1  2  1  0
  2  3  1  0
  3  4  1  0
  4  5  2  0
  5  6  1  0
  6  7  1  0
  7  8  1  0
  8  9  1  0
  9 10  1  0
 10 11  1  0
 11 12  1  0
 12 13  1  0
  6 14  2  0
 14  3  1  0
 11  7  1  0
  1 15  1  0
  1 16  1  0
  1 17  1  0
  2 18  1  0
  2 19  1  0
  7 20  1  6
  8 21  1  0
  8 22  1  0
  9 23  1  0
 10 24  1  0
 10 25  1  0
 11 26  1  1
 12 27  1  0
 12 28  1  0
 13 29  1  0
M  END
$$$$

     RDKit          3D

 29 30  0  0  0  0  0  0  0  0999 V2000
    4.1968    0.7729   -0.9477 C   0  0  0  0  0  0  0  0  0  0  0  0
    3.7491    0.3596    0.4424 C   0  0  0  0  0  0  0  0  0  0  0  0
    2.5169   -0.3819    0.3410 N   0  0  0  0  0  0  0  0  0  0  0  0
    2.4743   -1.6954    0.1944 N   0  0  0  0  0  0  0  0  0  0  0  0
    1.2285   -2.0641    0.1342 N   0  0  0  0  0  0  0  0  0  0  0  0
    0.4308   -0.9855    0.2418 C   0  0  0  0  0  0  0  0  0  0  0  0
   -1.0287   -1.0491    0.2128 C   0  0  1  0  0  0  0  0  0  0  0  0
   -1.5265   -0.4262    1.5258 C   0  0  0  0  0  0  0  0  0  0  0  0
   -1.5963    0.9834    1.2815 N   0  0  0  0  0  0  0  0  0  0  0  0
   -1.4456    1.2233   -0.1174 C   0  0  0  0  0  0  0  0  0  0  0  0
   -1.6648   -0.1002   -0.7756 C   0  0  2  0  0  0  0  0  0  0  0  0
   -3.1600   -0.3842   -0.7583 C   0  0  0  0  0  0  0  0  0  0  0  0
   -3.8385    0.4527   -1.6495 O   0  0  0  0  0  0  0  0  0  0  0  0
    1.2642    0.0642    0.3713 N   0  0  0  0  0  0  0  0  0  0  0  0
    3.3657    1.3402   -1.3920 H   0  0  0  0  0  0  0  0  0  0  0  0
    5.0873    1.4336   -0.8376 H   0  0  0  0  0  0  0  0  0  0  0  0
    4.4543   -0.1270   -1.5443 H   0  0  0  0  0  0  0  0  0  0  0  0
    4.5271   -0.2860    0.8934 H   0  0  0  0  0  0  0  0  0  0  0  0
    3.6464    1.2744    1.0600 H   0  0  0  0  0  0  0  0  0  0  0  0
   -1.3716   -2.0773    0.1016 H   0  0  0  0  0  0  0  0  0  0  0  0
   -0.7674   -0.5999    2.3112 H   0  0  0  0  0  0  0  0  0  0  0  0
   -2.4809   -0.8885    1.8238 H   0  0  0  0  0  0  0  0  0  0  0  0
   -2.5174    1.3825    1.6269 H   0  0  0  0  0  0  0  0  0  0  0  0
   -0.4053    1.6106   -0.3063 H   0  0  0  0  0  0  0  0  0  0  0  0
   -2.1645    1.9663   -0.5198 H   0  0  0  0  0  0  0  0  0  0  0  0
   -1.2740   -0.1920   -1.7853 H   0  0  0  0  0  0  0  0  0  0  0  0
   -3.3737   -1.4471   -1.0002 H   0  0  0  0  0  0  0  0  0  0  0  0
   -3.5796   -0.1892    0.2413 H   0  0  0  0  0  0  0  0  0  0  0  0
   -4.7467    0.0300   -1.7637 H   0  0  0  0  0  0  0  0  0  0  0  0
  1  2  1  0
  2  3  1  0
  3  4  1  0
  4  5  2  0
  5  6  1  0
  6  7  1  0
  7  8  1  0
  8  9  1  0
  9 10  1  0
 10 11  1  0
 11 12  1  0
 12 13  1  0
  6 14  2  0
 14  3  1  0
 11  7  1  0
  1 15  1  0
  1 16  1  0
  1 17  1  0
  2 18  1  0
  2 19  1  0
  7 20  1  6
  8 21  1  0
  8 22  1  0
  9 23  1  0
 10 24  1  0
 10 25  1  0
 11 26  1  6
 12 27  1  0
 12 28  1  0
 13 29  1  0
M  END
$$$$

     RDKit          3D

 29 30  0  0  0  0  0  0  0  0999 V2000
    4.3201    1.0867    0.5336 C   0  0  0  0  0  0  0  0  0  0  0  0
    3.8670   -0.3326    0.4060 C   0  0  0  0  0  0  0  0  0  0  0  0
    2.4345   -0.4738    0.6340 N   0  0  0  0  0  0  0  0  0  0  0  0
    1.8234   -0.7016    1.7925 N   0  0  0  0  0  0  0  0  0  0  0  0
    0.5055   -0.7575    1.5338 N   0  0  0  0  0  0  0  0  0  0  0  0
    0.3013   -0.5681    0.2400 C   0  0  0  0  0  0  0  0  0  0  0  0
   -0.9790   -0.5529   -0.4507 C   0  0  1  0  0  0  0  0  0  0  0  0
   -1.7384   -1.8772   -0.2772 C   0  0  0  0  0  0  0  0  0  0  0  0
   -2.9759   -1.4864   -0.9759 N   0  0  0  0  0  0  0  0  0  0  0  0
   -3.2959   -0.2024   -0.3536 C   0  0  0  0  0  0  0  0  0  0  0  0
   -1.9855    0.3864    0.1182 C   0  0  2  0  0  0  0  0  0  0  0  0
   -1.7949    1.8203   -0.3013 C   0  0  0  0  0  0  0  0  0  0  0  0
   -1.8817    1.9265   -1.6768 O   0  0  0  0  0  0  0  0  0  0  0  0
    1.5102   -0.3920   -0.3131 N   0  0  0  0  0  0  0  0  0  0  0  0
    4.8649    1.1874    1.4988 H   0  0  0  0  0  0  0  0  0  0  0  0
    5.0425    1.3012   -0.2940 H   0  0  0  0  0  0  0  0  0  0  0  0
    3.4616    1.8020    0.4658 H   0  0  0  0  0  0  0  0  0  0  0  0
    4.3738   -1.0165    1.1206 H   0  0  0  0  0  0  0  0  0  0  0  0
    4.0695   -0.7223   -0.6123 H   0  0  0  0  0  0  0  0  0  0  0  0
   -0.8882   -0.3726   -1.5509 H   0  0  0  0  0  0  0  0  0  0  0  0
   -1.2406   -2.7101   -0.7584 H   0  0  0  0  0  0  0  0  0  0  0  0
   -1.9841   -2.0058    0.7746 H   0  0  0  0  0  0  0  0  0  0  0  0
   -2.6753   -1.2676   -1.9530 H   0  0  0  0  0  0  0  0  0  0  0  0
   -3.9596   -0.4635    0.5098 H   0  0  0  0  0  0  0  0  0  0  0  0
   -3.8173    0.4561   -1.0739 H   0  0  0  0  0  0  0  0  0  0  0  0
   -1.9675    0.2857    1.2421 H   0  0  0  0  0  0  0  0  0  0  0  0
   -2.4727    2.4735    0.2463 H   0  0  0  0  0  0  0  0  0  0  0  0
   -0.7354    2.0793   -0.0217 H   0  0  0  0  0  0  0  0  0  0  0  0
   -2.1823    1.0978   -2.0963 H   0  0  0  0  0  0  0  0  0  0  0  0
  1  2  1  0
  2  3  1  0
  3  4  1  0
  4  5  2  0
  5  6  1  0
  6  7  1  0
  7  8  1  0
  8  9  1  0
  9 10  1  0
 10 11  1  0
 11 12  1  0
 12 13  1  0
  6 14  2  0
 14  3  1  0
 11  7  1  0
  1 15  1  0
  1 16  1  0
  1 17  1  0
  2 18  1  0
  2 19  1  0
  7 20  1  6
  8 21  1  0
  8 22  1  0
  9 23  1  0
 10 24  1  0
 10 25  1  0
 11 26  1  1
 12 27  1  0
 12 28  1  0
 13 29  1  0
M  END
$$$$

     RDKit          3D

 29 30  0  0  0  0  0  0  0  0999 V2000
    3.9722   -0.7184   -1.2312 C   0  0  0  0  0  0  0  0  0  0  0  0
    3.7030   -0.1831    0.1611 C   0  0  0  0  0  0  0  0  0  0  0  0
    2.3751   -0.6058    0.5519 N   0  0  0  0  0  0  0  0  0  0  0  0
    2.0058   -1.7009    1.1792 N   0  0  0  0  0  0  0  0  0  0  0  0
    0.6972   -1.6852    1.3350 N   0  0  0  0  0  0  0  0  0  0  0  0
    0.2392   -0.5593    0.7953 C   0  0  0  0  0  0  0  0  0  0  0  0
   -1.1668   -0.0738    0.7142 C   0  0  1  0  0  0  0  0  0  0  0  0
   -1.2381    1.2905    1.3544 C   0  0  0  0  0  0  0  0  0  0  0  0
   -2.3361    1.9179    0.6983 N   0  0  0  0  0  0  0  0  0  0  0  0
   -2.3827    1.4945   -0.6615 C   0  0  0  0  0  0  0  0  0  0  0  0
   -1.5536    0.2311   -0.7266 C   0  0  2  0  0  0  0  0  0  0  0  0
   -2.4193   -0.9032   -1.2725 C   0  0  0  0  0  0  0  0  0  0  0  0
   -3.5663   -1.0488   -0.5298 O   0  0  0  0  0  0  0  0  0  0  0  0
    1.2837    0.1177    0.3051 N   0  0  0  0  0  0  0  0  0  0  0  0
    4.9081   -0.2507   -1.6251 H   0  0  0  0  0  0  0  0  0  0  0  0
    4.1748   -1.8074   -1.1710 H   0  0  0  0  0  0  0  0  0  0  0  0
    3.1050   -0.5133   -1.8840 H   0  0  0  0  0  0  0  0  0  0  0  0
    4.4101   -0.6159    0.8990 H   0  0  0  0  0  0  0  0  0  0  0  0
    3.7999    0.9128    0.1723 H   0  0  0  0  0  0  0  0  0  0  0  0
   -1.8732   -0.7837    1.1792 H   0  0  0  0  0  0  0  0  0  0  0  0
   -0.2784    1.7963    1.2438 H   0  0  0  0  0  0  0  0  0  0  0  0
   -1.4521    1.1523    2.4378 H   0  0  0  0  0  0  0  0  0  0  0  0
   -2.3909    2.9470    0.8334 H   0  0  0  0  0  0  0  0  0  0  0  0
   -3.4594    1.2618   -0.9076 H   0  0  0  0  0  0  0  0  0  0  0  0
   -2.0085    2.2426   -1.3826 H   0  0  0  0  0  0  0  0  0  0  0  0
   -0.6590    0.3227   -1.3499 H   0  0  0  0  0  0  0  0  0  0  0  0
   -2.6704   -0.6639   -2.3161 H   0  0  0  0  0  0  0  0  0  0  0  0
   -1.7964   -1.8362   -1.2863 H   0  0  0  0  0  0  0  0  0  0  0  0
   -3.4228   -1.7374    0.1676 H   0  0  0  0  0  0  0  0  0  0  0  0
  1  2  1  0
  2  3  1  0
  3  4  1  0
  4  5  2  0
  5  6  1  0
  6  7  1  0
  7  8  1  0
  8  9  1  0
  9 10  1  0
 10 11  1  0
 11 12  1  0
 12 13  1  0
  6 14  2  0
 14  3  1  0
 11  7  1  0
  1 15  1  0
  1 16  1  0
  1 17  1  0
  2 18  1  0
  2 19  1  0
  7 20  1  1
  8 21  1  0
  8 22  1  0
  9 23  1  0
 10 24  1  0
 10 25  1  0
 11 26  1  6
 12 27  1  0
 12 28  1  0
 13 29  1  0
M  END
$$$$

     RDKit          3D

 29 30  0  0  0  0  0  0  0  0999 V2000
    4.6864   -0.1064   -0.2728 C   0  0  0  0  0  0  0  0  0  0  0  0
    3.8758   -0.3309    1.0098 C   0  0  0  0  0  0  0  0  0  0  0  0
    2.4752   -0.5482    0.6152 N   0  0  0  0  0  0  0  0  0  0  0  0
    1.9001   -1.7018    0.3349 N   0  0  0  0  0  0  0  0  0  0  0  0
    0.6259   -1.4997    0.0204 N   0  0  0  0  0  0  0  0  0  0  0  0
    0.3823   -0.1833    0.1024 C   0  0  0  0  0  0  0  0  0  0  0  0
   -0.8963    0.5242   -0.1570 C   0  0  1  0  0  0  0  0  0  0  0  0
   -1.4023    0.2368   -1.5658 C   0  0  0  0  0  0  0  0  0  0  0  0
   -2.0633   -1.0243   -1.4211 N   0  0  0  0  0  0  0  0  0  0  0  0
   -2.7648   -0.9897   -0.1527 C   0  0  0  0  0  0  0  0  0  0  0  0
   -1.9961   -0.0126    0.6960 C   0  0  2  0  0  0  0  0  0  0  0  0
   -2.9269    1.1488    1.0407 C   0  0  0  0  0  0  0  0  0  0  0  0
   -3.4575    1.7077   -0.1197 O   0  0  0  0  0  0  0  0  0  0  0  0
    1.5471    0.3752    0.4725 N   0  0  0  0  0  0  0  0  0  0  0  0
    4.7454   -1.0581   -0.8411 H   0  0  0  0  0  0  0  0  0  0  0  0
    4.1691    0.6968   -0.8585 H   0  0  0  0  0  0  0  0  0  0  0  0
    5.7045    0.2370   -0.0055 H   0  0  0  0  0  0  0  0  0  0  0  0
    4.2072   -1.2468    1.5049 H   0  0  0  0  0  0  0  0  0  0  0  0
    3.9546    0.5725    1.6323 H   0  0  0  0  0  0  0  0  0  0  0  0
   -0.7965    1.6159   -0.0091 H   0  0  0  0  0  0  0  0  0  0  0  0
   -0.5089    0.1264   -2.2144 H   0  0  0  0  0  0  0  0  0  0  0  0
   -2.0661    1.0427   -1.8751 H   0  0  0  0  0  0  0  0  0  0  0  0
   -1.4653   -1.8494   -1.5480 H   0  0  0  0  0  0  0  0  0  0  0  0
   -3.8135   -0.6778   -0.3282 H   0  0  0  0  0  0  0  0  0  0  0  0
   -2.7986   -1.9855    0.3376 H   0  0  0  0  0  0  0  0  0  0  0  0
   -1.6471   -0.4628    1.6451 H   0  0  0  0  0  0  0  0  0  0  0  0
   -2.3506    1.9197    1.5942 H   0  0  0  0  0  0  0  0  0  0  0  0
   -3.7387    0.8011    1.7297 H   0  0  0  0  0  0  0  0  0  0  0  0
   -3.5812    2.6726   -0.0646 H   0  0  0  0  0  0  0  0  0  0  0  0
  1  2  1  0
  2  3  1  0
  3  4  1  0
  4  5  2  0
  5  6  1  0
  6  7  1  0
  7  8  1  0
  8  9  1  0
  9 10  1  0
 10 11  1  0
 11 12  1  0
 12 13  1  0
  6 14  2  0
 14  3  1  0
 11  7  1  0
  1 15  1  0
  1 16  1  0
  1 17  1  0
  2 18  1  0
  2 19  1  0
  7 20  1  6
  8 21  1  0
  8 22  1  0
  9 23  1  0
 10 24  1  0
 10 25  1  0
 11 26  1  1
 12 27  1  0
 12 28  1  0
 13 29  1  0
M  END
$$$$
