
     RDKit          3D

 22 22  0  0  0  0  0  0  0  0999 V2000
    4.5023   -0.3683    0.4753 N   0  0  0  0  0  0  0  0  0  0  0  0
    3.6207    0.6734    0.0460 C   0  0  0  0  0  0  0  0  0  0  0  0
    2.1848    0.2993    0.1420 C   0  0  0  0  0  0  0  0  0  0  0  0
    1.7472   -0.8724    0.5775 N   0  0  0  0  0  0  0  0  0  0  0  0
    0.4597   -1.2133    0.6660 C   0  0  0  0  0  0  0  0  0  0  0  0
   -0.5099   -0.2817    0.2764 C   0  0  0  0  0  0  0  0  0  0  0  0
   -1.8729   -0.6247    0.3457 N   0  0  0  0  0  0  0  0  0  0  0  0
   -2.9608    0.2468    0.2524 C   0  0  0  0  0  0  0  0  0  0  0  0
   -2.7775    1.4795    0.0954 O   0  0  0  0  0  0  0  0  0  0  0  0
   -4.3512   -0.2673    0.3371 C   0  0  0  0  0  0  0  0  0  0  0  0
   -4.5524   -1.4809    0.4919 O   0  0  0  0  0  0  0  0  0  0  0  0
   -5.4002    0.6080    0.2428 O   0  0  0  0  0  0  0  0  0  0  0  0
   -0.0334    0.9145   -0.1677 C   0  0  0  0  0  0  0  0  0  0  0  0
    1.2832    1.2020   -0.2345 N   0  0  0  0  0  0  0  0  0  0  0  0
    4.6606   -1.1126   -0.2220 H   0  0  0  0  0  0  0  0  0  0  0  0
    5.4509    0.0840    0.6377 H   0  0  0  0  0  0  0  0  0  0  0  0
    3.8421    1.0324   -0.9818 H   0  0  0  0  0  0  0  0  0  0  0  0
    3.7631    1.5509    0.7209 H   0  0  0  0  0  0  0  0  0  0  0  0
    0.1139   -2.1734    1.0235 H   0  0  0  0  0  0  0  0  0  0  0  0
   -2.1015   -1.6629    0.4831 H   0  0  0  0  0  0  0  0  0  0  0  0
   -6.3297    0.2708    0.4695 H   0  0  0  0  0  0  0  0  0  0  0  0
   -0.7388    1.6959   -0.5037 H   0  0  0  0  0  0  0  0  0  0  0  0
  1  2  1  0
  2  3  1  0
  3  4  2  0
  4  5  1  0
  5  6  2  0
  6  7  1  0
  7  8  1  0
  8  9  2  0
  8 10  1  0
 10 11  2  0
 10 12  1  0
  6 13  1  0
 13 14  2  0
 14  3  1  0
  1 15  1  0
  1 16  1  0
  2 17  1  0
  2 18  1  0
  5 19  1  0
  7 20  1  0
 12 21  1  0
 13 22  1  0
M  END
$$$$

     RDKit          3D

 22 22  0  0  0  0  0  0  0  0999 V2000
   -4.4724   -0.6972   -0.3583 N   0  0  0  0  0  0  0  0  0  0  0  0
   -3.6598    0.5034   -0.4680 C   0  0  0  0  0  0  0  0  0  0  0  0
   -2.2075    0.1936   -0.3153 C   0  0  0  0  0  0  0  0  0  0  0  0
   -1.7394   -1.0439   -0.1045 N   0  0  0  0  0  0  0  0  0  0  0  0
   -0.4317   -1.2787    0.0266 C   0  0  0  0  0  0  0  0  0  0  0  0
    0.4941   -0.2467   -0.0507 C   0  0  0  0  0  0  0  0  0  0  0  0
    1.8712   -0.5091    0.0971 N   0  0  0  0  0  0  0  0  0  0  0  0
    2.9513    0.3706   -0.0602 C   0  0  0  0  0  0  0  0  0  0  0  0
    2.7613    1.5587   -0.3735 O   0  0  0  0  0  0  0  0  0  0  0  0
    4.3541   -0.0733    0.1381 C   0  0  0  0  0  0  0  0  0  0  0  0
    4.5757   -1.2479    0.4499 O   0  0  0  0  0  0  0  0  0  0  0  0
    5.4093    0.7898   -0.0165 O   0  0  0  0  0  0  0  0  0  0  0  0
   -0.0115    1.0008   -0.2655 C   0  0  0  0  0  0  0  0  0  0  0  0
   -1.3524    1.2142   -0.3962 N   0  0  0  0  0  0  0  0  0  0  0  0
   -5.4078   -0.4723   -0.7799 H   0  0  0  0  0  0  0  0  0  0  0  0
   -4.5646   -0.9073    0.6605 H   0  0  0  0  0  0  0  0  0  0  0  0
   -3.8003    0.9577   -1.4643 H   0  0  0  0  0  0  0  0  0  0  0  0
   -3.9083    1.2321    0.3383 H   0  0  0  0  0  0  0  0  0  0  0  0
   -0.0217   -2.2723    0.1982 H   0  0  0  0  0  0  0  0  0  0  0  0
    2.1732   -1.5102    0.3681 H   0  0  0  0  0  0  0  0  0  0  0  0
    6.3493    0.5682    0.2712 H   0  0  0  0  0  0  0  0  0  0  0  0
    0.6381    1.8699   -0.3356 H   0  0  0  0  0  0  0  0  0  0  0  0
  1  2  1  0
  2  3  1  0
  3  4  2  0
  4  5  1  0
  5  6  2  0
  6  7  1  0
  7  8  1  0
  8  9  2  0
  8 10  1  0
 10 11  2  0
 10 12  1  0
  6 13  1  0
 13 14  2  0
 14  3  1  0
  1 15  1  0
  1 16  1  0
  2 17  1  0
  2 18  1  0
  5 19  1  0
  7 20  1  0
 12 21  1  0
 13 22  1  0
M  END
$$$$

     RDKit          3D

 22 22  0  0  0  0  0  0  0  0999 V2000
   -4.3182   -0.3479   -0.8142 N   0  0  0  0  0  0  0  0  0  0  0  0
   -3.7075    0.3986    0.2689 C   0  0  0  0  0  0  0  0  0  0  0  0
   -2.2322    0.2201    0.3006 C   0  0  0  0  0  0  0  0  0  0  0  0
   -1.6790   -0.7670    1.0090 N   0  0  0  0  0  0  0  0  0  0  0  0
   -0.3672   -1.0013    1.0944 C   0  0  0  0  0  0  0  0  0  0  0  0
    0.5212   -0.1680    0.4014 C   0  0  0  0  0  0  0  0  0  0  0  0
    1.8907   -0.4455    0.5065 N   0  0  0  0  0  0  0  0  0  0  0  0
    2.9655    0.3324    0.0118 C   0  0  0  0  0  0  0  0  0  0  0  0
    2.7508    1.3967   -0.5932 O   0  0  0  0  0  0  0  0  0  0  0  0
    4.3532   -0.1171    0.2120 C   0  0  0  0  0  0  0  0  0  0  0  0
    4.5614   -1.1791    0.8158 O   0  0  0  0  0  0  0  0  0  0  0  0
    5.4189    0.6210   -0.2593 O   0  0  0  0  0  0  0  0  0  0  0  0
   -0.0301    0.8451   -0.3271 C   0  0  0  0  0  0  0  0  0  0  0  0
   -1.3863    1.0229   -0.3665 N   0  0  0  0  0  0  0  0  0  0  0  0
   -4.5085   -1.3402   -0.5600 H   0  0  0  0  0  0  0  0  0  0  0  0
   -5.2329    0.1442   -1.0202 H   0  0  0  0  0  0  0  0  0  0  0  0
   -4.1660    0.0582    1.2330 H   0  0  0  0  0  0  0  0  0  0  0  0
   -3.9535    1.4849    0.1145 H   0  0  0  0  0  0  0  0  0  0  0  0
    0.0120   -1.8419    1.7047 H   0  0  0  0  0  0  0  0  0  0  0  0
    2.1584   -1.3499    1.0166 H   0  0  0  0  0  0  0  0  0  0  0  0
    6.3406    0.5229    0.1592 H   0  0  0  0  0  0  0  0  0  0  0  0
    0.6087    1.5108   -0.8817 H   0  0  0  0  0  0  0  0  0  0  0  0
  1  2  1  0
  2  3  1  0
  3  4  2  0
  4  5  1  0
  5  6  2  0
  6  7  1  0
  7  8  1  0
  8  9  2  0
  8 10  1  0
 10 11  2  0
 10 12  1  0
  6 13  1  0
 13 14  2  0
 14  3  1  0
  1 15  1  0
  1 16  1  0
  2 17  1  0
  2 18  1  0
  5 19  1  0
  7 20  1  0
 12 21  1  0
 13 22  1  0
M  END
$$$$

     RDKit          3D

 22 22  0  0  0  0  0  0  0  0999 V2000
   -4.3917    0.3427    0.5013 N   0  0  0  0  0  0  0  0  0  0  0  0
   -3.7753   -0.6505   -0.3569 C   0  0  0  0  0  0  0  0  0  0  0  0
   -2.3028   -0.3857   -0.3317 C   0  0  0  0  0  0  0  0  0  0  0  0
   -1.7322    0.4451   -1.2193 N   0  0  0  0  0  0  0  0  0  0  0  0
   -0.4119    0.6848   -1.1995 C   0  0  0  0  0  0  0  0  0  0  0  0
    0.4549    0.0981   -0.2694 C   0  0  0  0  0  0  0  0  0  0  0  0
    1.8380    0.4049   -0.3173 N   0  0  0  0  0  0  0  0  0  0  0  0
    2.8463   -0.0777    0.5166 C   0  0  0  0  0  0  0  0  0  0  0  0
    2.5856   -0.8704    1.4295 O   0  0  0  0  0  0  0  0  0  0  0  0
    4.2468    0.3698    0.2999 C   0  0  0  0  0  0  0  0  0  0  0  0
    4.5334    1.1688   -0.6144 O   0  0  0  0  0  0  0  0  0  0  0  0
    5.2698   -0.0889    1.1079 O   0  0  0  0  0  0  0  0  0  0  0  0
   -0.1478   -0.7442    0.6247 C   0  0  0  0  0  0  0  0  0  0  0  0
   -1.5018   -0.9646    0.5731 N   0  0  0  0  0  0  0  0  0  0  0  0
   -3.9248    0.2801    1.4395 H   0  0  0  0  0  0  0  0  0  0  0  0
   -4.3723    1.2966    0.1039 H   0  0  0  0  0  0  0  0  0  0  0  0
   -3.9151   -1.6355    0.1515 H   0  0  0  0  0  0  0  0  0  0  0  0
   -4.1630   -0.6269   -1.3807 H   0  0  0  0  0  0  0  0  0  0  0  0
    0.0434    1.3617   -1.9250 H   0  0  0  0  0  0  0  0  0  0  0  0
    2.1595    1.0888   -1.0820 H   0  0  0  0  0  0  0  0  0  0  0  0
    6.2173   -0.2631    0.7393 H   0  0  0  0  0  0  0  0  0  0  0  0
    0.4436   -1.2340    1.3696 H   0  0  0  0  0  0  0  0  0  0  0  0
  1  2  1  0
  2  3  1  0
  3  4  2  0
  4  5  1  0
  5  6  2  0
  6  7  1  0
  7  8  1  0
  8  9  2  0
  8 10  1  0
 10 11  2  0
 10 12  1  0
  6 13  1  0
 13 14  2  0
 14  3  1  0
  1 15  1  0
  1 16  1  0
  2 17  1  0
  2 18  1  0
  5 19  1  0
  7 20  1  0
 12 21  1  0
 13 22  1  0
M  END
$$$$

     RDKit          3D

 22 22  0  0  0  0  0  0  0  0999 V2000
    3.9025    0.9550    1.9006 N   0  0  0  0  0  0  0  0  0  0  0  0
    3.6770    0.3292    0.6092 C   0  0  0  0  0  0  0  0  0  0  0  0
    2.2323    0.0258    0.4004 C   0  0  0  0  0  0  0  0  0  0  0  0
    1.6843   -1.1441    0.7477 N   0  0  0  0  0  0  0  0  0  0  0  0
    0.3800   -1.3920    0.5495 C   0  0  0  0  0  0  0  0  0  0  0  0
   -0.4596   -0.4301   -0.0313 C   0  0  0  0  0  0  0  0  0  0  0  0
   -1.8200   -0.7483   -0.2140 N   0  0  0  0  0  0  0  0  0  0  0  0
   -2.8240    0.0670   -0.7729 C   0  0  0  0  0  0  0  0  0  0  0  0
   -2.5447    1.2146   -1.1724 O   0  0  0  0  0  0  0  0  0  0  0  0
   -4.2157   -0.3807   -0.9104 C   0  0  0  0  0  0  0  0  0  0  0  0
   -4.6182   -1.5137   -0.5450 O   0  0  0  0  0  0  0  0  0  0  0  0
   -5.1483    0.4721   -1.4682 O   0  0  0  0  0  0  0  0  0  0  0  0
    0.1569    0.7368   -0.3618 C   0  0  0  0  0  0  0  0  0  0  0  0
    1.4718    0.9657   -0.1535 N   0  0  0  0  0  0  0  0  0  0  0  0
    3.8747    2.0017    1.8215 H   0  0  0  0  0  0  0  0  0  0  0  0
    4.7961    0.6127    2.3185 H   0  0  0  0  0  0  0  0  0  0  0  0
    4.2786   -0.6014    0.5087 H   0  0  0  0  0  0  0  0  0  0  0  0
    3.9912    1.0199   -0.1956 H   0  0  0  0  0  0  0  0  0  0  0  0
   -0.0655   -2.3402    0.8307 H   0  0  0  0  0  0  0  0  0  0  0  0
   -2.1823   -1.7126    0.0926 H   0  0  0  0  0  0  0  0  0  0  0  0
   -6.1480    0.3315   -1.4290 H   0  0  0  0  0  0  0  0  0  0  0  0
   -0.4191    1.5310   -0.8146 H   0  0  0  0  0  0  0  0  0  0  0  0
  1  2  1  0
  2  3  1  0
  3  4  2  0
  4  5  1  0
  5  6  2  0
  6  7  1  0
  7  8  1  0
  8  9  2  0
  8 10  1  0
 10 11  2  0
 10 12  1  0
  6 13  1  0
 13 14  2  0
 14  3  1  0
  1 15  1  0
  1 16  1  0
  2 17  1  0
  2 18  1  0
  5 19  1  0
  7 20  1  0
 12 21  1  0
 13 22  1  0
M  END
$$$$

     RDKit          3D

 22 22  0  0  0  0  0  0  0  0999 V2000
   -4.3301   -0.4540    0.6688 N   0  0  0  0  0  0  0  0  0  0  0  0
   -3.6923   -0.0548   -0.5631 C   0  0  0  0  0  0  0  0  0  0  0  0
   -2.2099    0.1088   -0.3191 C   0  0  0  0  0  0  0  0  0  0  0  0
   -1.6981    1.2766    0.0608 N   0  0  0  0  0  0  0  0  0  0  0  0
   -0.3791    1.4139    0.2757 C   0  0  0  0  0  0  0  0  0  0  0  0
    0.4993    0.3469    0.1106 C   0  0  0  0  0  0  0  0  0  0  0  0
    1.8612    0.5835    0.3577 N   0  0  0  0  0  0  0  0  0  0  0  0
    2.9277   -0.3482    0.2541 C   0  0  0  0  0  0  0  0  0  0  0  0
    2.6936   -1.5083   -0.0861 O   0  0  0  0  0  0  0  0  0  0  0  0
    4.3210    0.0556    0.5499 C   0  0  0  0  0  0  0  0  0  0  0  0
    4.6112    1.2237    0.8999 O   0  0  0  0  0  0  0  0  0  0  0  0
    5.2974   -0.9164    0.4233 O   0  0  0  0  0  0  0  0  0  0  0  0
   -0.0649   -0.8259   -0.2777 C   0  0  0  0  0  0  0  0  0  0  0  0
   -1.3969   -0.9381   -0.4877 N   0  0  0  0  0  0  0  0  0  0  0  0
   -5.3434   -0.1957    0.6227 H   0  0  0  0  0  0  0  0  0  0  0  0
   -4.1868   -1.4546    0.8970 H   0  0  0  0  0  0  0  0  0  0  0  0
   -3.8439   -0.8022   -1.3678 H   0  0  0  0  0  0  0  0  0  0  0  0
   -4.0660    0.9543   -0.8239 H   0  0  0  0  0  0  0  0  0  0  0  0
   -0.0238    2.3806    0.5810 H   0  0  0  0  0  0  0  0  0  0  0  0
    2.2005    1.5581    0.6628 H   0  0  0  0  0  0  0  0  0  0  0  0
    6.2938   -0.7148    0.5378 H   0  0  0  0  0  0  0  0  0  0  0  0
    0.5295   -1.6889   -0.4269 H   0  0  0  0  0  0  0  0  0  0  0  0
  1  2  1  0
  2  3  1  0
  3  4  2  0
  4  5  1  0
  5  6  2  0
  6  7  1  0
  7  8  1  0
  8  9  2  0
  8 10  1  0
 10 11  2  0
 10 12  1  0
  6 13  1  0
 13 14  2  0
 14  3  1  0
  1 15  1  0
  1 16  1  0
  2 17  1  0
  2 18  1  0
  5 19  1  0
  7 20  1  0
 12 21  1  0
 13 22  1  0
M  END
$$$$

     RDKit          3D

 22 22  0  0  0  0  0  0  0  0999 V2000
   -4.0878    1.2099   -1.0757 N   0  0  0  0  0  0  0  0  0  0  0  0
   -3.8344   -0.0430   -0.3608 C   0  0  0  0  0  0  0  0  0  0  0  0
   -2.3553   -0.1692   -0.1758 C   0  0  0  0  0  0  0  0  0  0  0  0
   -1.8331   -1.2308    0.4541 N   0  0  0  0  0  0  0  0  0  0  0  0
   -0.5315   -1.4025    0.6503 C   0  0  0  0  0  0  0  0  0  0  0  0
    0.3486   -0.4346    0.1811 C   0  0  0  0  0  0  0  0  0  0  0  0
    1.7399   -0.5646    0.3765 N   0  0  0  0  0  0  0  0  0  0  0  0
    2.7910    0.1658   -0.1700 C   0  0  0  0  0  0  0  0  0  0  0  0
    2.5434    1.0916   -0.9672 O   0  0  0  0  0  0  0  0  0  0  0  0
    4.2114   -0.1064    0.1536 C   0  0  0  0  0  0  0  0  0  0  0  0
    4.5169   -1.0244    0.9482 O   0  0  0  0  0  0  0  0  0  0  0  0
    5.2439    0.6252   -0.3950 O   0  0  0  0  0  0  0  0  0  0  0  0
   -0.1639    0.6571   -0.4643 C   0  0  0  0  0  0  0  0  0  0  0  0
   -1.5077    0.7465   -0.6183 N   0  0  0  0  0  0  0  0  0  0  0  0
   -3.6675    1.9614   -0.4603 H   0  0  0  0  0  0  0  0  0  0  0  0
   -3.4877    1.1849   -1.9317 H   0  0  0  0  0  0  0  0  0  0  0  0
   -4.2923   -0.0444    0.6423 H   0  0  0  0  0  0  0  0  0  0  0  0
   -4.2300   -0.8947   -0.9762 H   0  0  0  0  0  0  0  0  0  0  0  0
   -0.1080   -2.2493    1.1531 H   0  0  0  0  0  0  0  0  0  0  0  0
    2.0456   -1.3459    1.0519 H   0  0  0  0  0  0  0  0  0  0  0  0
    6.2227    0.3892   -0.2645 H   0  0  0  0  0  0  0  0  0  0  0  0
    0.4358    1.4782   -0.8647 H   0  0  0  0  0  0  0  0  0  0  0  0
  1  2  1  0
  2  3  1  0
  3  4  2  0
  4  5  1  0
  5  6  2  0
  6  7  1  0
  7  8  1  0
  8  9  2  0
  8 10  1  0
 10 11  2  0
 10 12  1  0
  6 13  1  0
 13 14  2  0
 14  3  1  0
  1 15  1  0
  1 16  1  0
  2 17  1  0
  2 18  1  0
  5 19  1  0
  7 20  1  0
 12 21  1  0
 13 22  1  0
M  END
$$$$

     RDKit          3D

 22 22  0  0  0  0  0  0  0  0999 V2000
   -4.1937    0.6550    1.0353 N   0  0  0  0  0  0  0  0  0  0  0  0
   -3.7702   -0.2819    0.0049 C   0  0  0  0  0  0  0  0  0  0  0  0
   -2.3102   -0.2814   -0.1141 C   0  0  0  0  0  0  0  0  0  0  0  0
   -1.5731    0.5112    0.6674 N   0  0  0  0  0  0  0  0  0  0  0  0
   -0.2149    0.5560    0.6039 C   0  0  0  0  0  0  0  0  0  0  0  0
    0.3954   -0.2574   -0.3094 C   0  0  0  0  0  0  0  0  0  0  0  0
    1.8040   -0.3187   -0.4695 N   0  0  0  0  0  0  0  0  0  0  0  0
    2.7783    0.2596    0.3617 C   0  0  0  0  0  0  0  0  0  0  0  0
    2.4648    0.9106    1.3713 O   0  0  0  0  0  0  0  0  0  0  0  0
    4.1915    0.1017    0.0466 C   0  0  0  0  0  0  0  0  0  0  0  0
    4.5809   -0.5455   -0.9612 O   0  0  0  0  0  0  0  0  0  0  0  0
    5.1707    0.6627    0.8509 O   0  0  0  0  0  0  0  0  0  0  0  0
   -0.3687   -1.0827   -1.1236 C   0  0  0  0  0  0  0  0  0  0  0  0
   -1.6948   -1.0689   -1.0007 N   0  0  0  0  0  0  0  0  0  0  0  0
   -3.4320    0.6754    1.7752 H   0  0  0  0  0  0  0  0  0  0  0  0
   -4.2258    1.6037    0.5560 H   0  0  0  0  0  0  0  0  0  0  0  0
   -4.1042   -1.3213    0.2676 H   0  0  0  0  0  0  0  0  0  0  0  0
   -4.2826    0.0316   -0.9468 H   0  0  0  0  0  0  0  0  0  0  0  0
    0.3277    1.2326    1.2677 H   0  0  0  0  0  0  0  0  0  0  0  0
    2.1888   -0.8578   -1.3126 H   0  0  0  0  0  0  0  0  0  0  0  0
    6.1511    0.5596    0.7097 H   0  0  0  0  0  0  0  0  0  0  0  0
    0.1170   -1.7440   -1.8651 H   0  0  0  0  0  0  0  0  0  0  0  0
  1  2  1  0
  2  3  1  0
  3  4  2  0
  4  5  1  0
  5  6  2  0
  6  7  1  0
  7  8  1  0
  8  9  2  0
  8 10  1  0
 10 11  2  0
 10 12  1  0
  6 13  1  0
 13 14  2  0
 14  3  1  0
  1 15  1  0
  1 16  1  0
  2 17  1  0
  2 18  1  0
  5 19  1  0
  7 20  1  0
 12 21  1  0
 13 22  1  0
M  END
$$$$
