
     RDKit          3D

 28 29  0  0  0  0  0  0  0  0999 V2000
   -2.7585    1.4179   -0.5900 C   0  0  0  0  0  0  0  0  0  0  0  0
   -1.6621    0.4750   -0.0562 C   0  0  2  0  0  0  0  0  0  0  0  0
   -0.3755    0.8383   -0.6723 C   0  0  0  0  0  0  0  0  0  0  0  0
    0.7803    0.1083   -0.3328 N   0  0  0  0  0  0  0  0  0  0  0  0
    1.6370    0.4886    0.7849 C   0  0  0  0  0  0  0  0  0  0  0  0
    2.9318   -0.2209    0.6301 C   0  0  2  0  0  0  0  0  0  0  0  0
    3.8760    0.5013   -0.0773 O   0  0  0  0  0  0  0  0  0  0  0  0
    2.5381   -1.4970   -0.0781 C   0  0  0  0  0  0  0  0  0  0  0  0
    1.3848   -1.0523   -0.8844 C   0  0  0  0  0  0  0  0  0  0  0  0
    0.9832   -1.6090   -1.9129 O   0  0  0  0  0  0  0  0  0  0  0  0
   -2.1421   -0.9304   -0.2044 C   0  0  0  0  0  0  0  0  0  0  0  0
   -2.3981   -0.8825    1.2483 C   0  0  0  0  0  0  0  0  0  0  0  0
   -2.9438   -1.6681    2.0425 O   0  0  0  0  0  0  0  0  0  0  0  0
   -1.7835    0.3856    1.3483 N   0  0  0  0  0  0  0  0  0  0  0  0
   -2.6315    2.3950   -0.0626 H   0  0  0  0  0  0  0  0  0  0  0  0
   -2.5162    1.6043   -1.6576 H   0  0  0  0  0  0  0  0  0  0  0  0
   -3.7580    0.9889   -0.4571 H   0  0  0  0  0  0  0  0  0  0  0  0
   -0.1895    1.9209   -0.5117 H   0  0  0  0  0  0  0  0  0  0  0  0
   -0.5083    0.7510   -1.7942 H   0  0  0  0  0  0  0  0  0  0  0  0
    1.0967    0.2667    1.7184 H   0  0  0  0  0  0  0  0  0  0  0  0
    1.8551    1.5951    0.7536 H   0  0  0  0  0  0  0  0  0  0  0  0
    3.3295   -0.4620    1.6442 H   0  0  0  0  0  0  0  0  0  0  0  0
    3.6332    0.4400   -1.0400 H   0  0  0  0  0  0  0  0  0  0  0  0
    3.3777   -1.8077   -0.7289 H   0  0  0  0  0  0  0  0  0  0  0  0
    2.2810   -2.2782    0.6547 H   0  0  0  0  0  0  0  0  0  0  0  0
   -3.1080   -1.0763   -0.7416 H   0  0  0  0  0  0  0  0  0  0  0  0
   -1.3933   -1.6771   -0.5324 H   0  0  0  0  0  0  0  0  0  0  0  0
   -1.5358    0.9844    2.1648 H   0  0  0  0  0  0  0  0  0  0  0  0
  2  1  1  6
  2  3  1  0
  3  4  1  0
  4  5  1  0
  5  6  1  0
  6  7  1  0
  6  8  1  0
  8  9  1  0
  9 10  2  0
  2 11  1  0
 11 12  1  0
 12 13  2  0
 12 14  1  0
 14  2  1  0
  9  4  1  0
  1 15  1  0
  1 16  1  0
  1 17  1  0
  3 18  1  0
  3 19  1  0
  5 20  1  0
  5 21  1  0
  6 22  1  1
  7 23  1  0
  8 24  1  0
  8 25  1  0
 11 26  1  0
 11 27  1  0
 14 28  1  0
M  END
$$$$

     RDKit          3D

 28 29  0  0  0  0  0  0  0  0999 V2000
   -1.5069   -0.5391   -1.4344 C   0  0  0  0  0  0  0  0  0  0  0  0
   -1.5673   -0.0879    0.0099 C   0  0  2  0  0  0  0  0  0  0  0  0
   -0.5228   -0.6695    0.9053 C   0  0  0  0  0  0  0  0  0  0  0  0
    0.8222   -0.3664    0.5085 N   0  0  0  0  0  0  0  0  0  0  0  0
    1.6026    0.7824    0.9279 C   0  0  0  0  0  0  0  0  0  0  0  0
    2.7547    0.8361   -0.0558 C   0  0  2  0  0  0  0  0  0  0  0  0
    2.3586    1.3852   -1.2693 O   0  0  0  0  0  0  0  0  0  0  0  0
    3.0106   -0.6384   -0.2886 C   0  0  0  0  0  0  0  0  0  0  0  0
    1.6109   -1.1566   -0.3703 C   0  0  0  0  0  0  0  0  0  0  0  0
    1.1525   -2.0998   -1.0581 O   0  0  0  0  0  0  0  0  0  0  0  0
   -2.9489   -0.3998    0.5677 C   0  0  0  0  0  0  0  0  0  0  0  0
   -3.2736    0.9455    0.0635 C   0  0  0  0  0  0  0  0  0  0  0  0
   -4.2741    1.5672   -0.3282 O   0  0  0  0  0  0  0  0  0  0  0  0
   -1.9003    1.2884    0.2066 N   0  0  0  0  0  0  0  0  0  0  0  0
   -0.6399   -0.1344   -1.9765 H   0  0  0  0  0  0  0  0  0  0  0  0
   -2.4174   -0.1908   -1.9642 H   0  0  0  0  0  0  0  0  0  0  0  0
   -1.5374   -1.6525   -1.4126 H   0  0  0  0  0  0  0  0  0  0  0  0
   -0.7484   -0.3217    1.9432 H   0  0  0  0  0  0  0  0  0  0  0  0
   -0.7115   -1.7821    0.9415 H   0  0  0  0  0  0  0  0  0  0  0  0
    1.0214    1.7249    0.8668 H   0  0  0  0  0  0  0  0  0  0  0  0
    2.0382    0.6449    1.9392 H   0  0  0  0  0  0  0  0  0  0  0  0
    3.6417    1.3430    0.3701 H   0  0  0  0  0  0  0  0  0  0  0  0
    2.7929    0.9417   -2.0482 H   0  0  0  0  0  0  0  0  0  0  0  0
    3.4756   -1.0750    0.6242 H   0  0  0  0  0  0  0  0  0  0  0  0
    3.5846   -0.8374   -1.2004 H   0  0  0  0  0  0  0  0  0  0  0  0
   -2.9183   -0.4885    1.6816 H   0  0  0  0  0  0  0  0  0  0  0  0
   -3.4705   -1.2124    0.0563 H   0  0  0  0  0  0  0  0  0  0  0  0
   -1.4296    2.1929    0.3804 H   0  0  0  0  0  0  0  0  0  0  0  0
  2  1  1  6
  2  3  1  0
  3  4  1  0
  4  5  1  0
  5  6  1  0
  6  7  1  0
  6  8  1  0
  8  9  1  0
  9 10  2  0
  2 11  1  0
 11 12  1  0
 12 13  2  0
 12 14  1  0
 14  2  1  0
  9  4  1  0
  1 15  1  0
  1 16  1  0
  1 17  1  0
  3 18  1  0
  3 19  1  0
  5 20  1  0
  5 21  1  0
  6 22  1  1
  7 23  1  0
  8 24  1  0
  8 25  1  0
 11 26  1  0
 11 27  1  0
 14 28  1  0
M  END
$$$$

     RDKit          3D

 28 29  0  0  0  0  0  0  0  0999 V2000
   -2.9537   -1.2198    0.5139 C   0  0  0  0  0  0  0  0  0  0  0  0
   -1.7732   -0.3357    0.0968 C   0  0  2  0  0  0  0  0  0  0  0  0
   -0.4995   -1.1106    0.2654 C   0  0  0  0  0  0  0  0  0  0  0  0
    0.6748   -0.3689   -0.1003 N   0  0  0  0  0  0  0  0  0  0  0  0
    1.4949    0.4734    0.7405 C   0  0  0  0  0  0  0  0  0  0  0  0
    2.8955    0.1049    0.2351 C   0  0  2  0  0  0  0  0  0  0  0  0
    3.8460    0.9971    0.6960 O   0  0  0  0  0  0  0  0  0  0  0  0
    2.6692    0.2091   -1.2598 C   0  0  0  0  0  0  0  0  0  0  0  0
    1.2881   -0.3085   -1.3957 C   0  0  0  0  0  0  0  0  0  0  0  0
    0.7728   -0.6329   -2.4965 O   0  0  0  0  0  0  0  0  0  0  0  0
   -1.8676    0.9849    0.7591 C   0  0  0  0  0  0  0  0  0  0  0  0
   -2.2481    1.4688   -0.6090 C   0  0  0  0  0  0  0  0  0  0  0  0
   -2.6468    2.6066   -0.9888 O   0  0  0  0  0  0  0  0  0  0  0  0
   -1.9820    0.1952   -1.2136 N   0  0  0  0  0  0  0  0  0  0  0  0
   -2.6821   -1.8502    1.3769 H   0  0  0  0  0  0  0  0  0  0  0  0
   -3.1653   -1.8846   -0.3455 H   0  0  0  0  0  0  0  0  0  0  0  0
   -3.8295   -0.6103    0.8108 H   0  0  0  0  0  0  0  0  0  0  0  0
   -0.4483   -1.4899    1.3156 H   0  0  0  0  0  0  0  0  0  0  0  0
   -0.5951   -2.0230   -0.3781 H   0  0  0  0  0  0  0  0  0  0  0  0
    1.3529    1.5427    0.5031 H   0  0  0  0  0  0  0  0  0  0  0  0
    1.4583    0.2225    1.7976 H   0  0  0  0  0  0  0  0  0  0  0  0
    3.1030   -0.9489    0.5443 H   0  0  0  0  0  0  0  0  0  0  0  0
    4.7244    0.6562    0.4550 H   0  0  0  0  0  0  0  0  0  0  0  0
    3.4043   -0.3912   -1.8302 H   0  0  0  0  0  0  0  0  0  0  0  0
    2.6590    1.2731   -1.5281 H   0  0  0  0  0  0  0  0  0  0  0  0
   -0.9653    1.4699    1.1193 H   0  0  0  0  0  0  0  0  0  0  0  0
   -2.7283    1.1249    1.4640 H   0  0  0  0  0  0  0  0  0  0  0  0
   -1.9585   -0.1551   -2.1758 H   0  0  0  0  0  0  0  0  0  0  0  0
  2  1  1  1
  2  3  1  0
  3  4  1  0
  4  5  1  0
  5  6  1  0
  6  7  1  0
  6  8  1  0
  8  9  1  0
  9 10  2  0
  2 11  1  0
 11 12  1  0
 12 13  2  0
 12 14  1  0
 14  2  1  0
  9  4  1  0
  1 15  1  0
  1 16  1  0
  1 17  1  0
  3 18  1  0
  3 19  1  0
  5 20  1  0
  5 21  1  0
  6 22  1  6
  7 23  1  0
  8 24  1  0
  8 25  1  0
 11 26  1  0
 11 27  1  0
 14 28  1  0
M  END
$$$$

     RDKit          3D

 28 29  0  0  0  0  0  0  0  0999 V2000
   -3.0387    0.3887    1.0628 C   0  0  0  0  0  0  0  0  0  0  0  0
   -1.7417    0.1390    0.2906 C   0  0  2  0  0  0  0  0  0  0  0  0
   -0.5483   -0.0519    1.1567 C   0  0  0  0  0  0  0  0  0  0  0  0
    0.6906   -0.2898    0.5134 N   0  0  0  0  0  0  0  0  0  0  0  0
    1.6741    0.7197    0.1044 C   0  0  0  0  0  0  0  0  0  0  0  0
    3.0174    0.0721    0.4067 C   0  0  2  0  0  0  0  0  0  0  0  0
    4.0530    0.6391   -0.2961 O   0  0  0  0  0  0  0  0  0  0  0  0
    2.7500   -1.3491   -0.0481 C   0  0  0  0  0  0  0  0  0  0  0  0
    1.2856   -1.5318    0.1261 C   0  0  0  0  0  0  0  0  0  0  0  0
    0.6838   -2.6108   -0.0435 O   0  0  0  0  0  0  0  0  0  0  0  0
   -1.6548    1.0858   -0.8601 C   0  0  0  0  0  0  0  0  0  0  0  0
   -2.5971    0.1250   -1.4884 C   0  0  0  0  0  0  0  0  0  0  0  0
   -3.5208    0.1215   -2.3308 O   0  0  0  0  0  0  0  0  0  0  0  0
   -2.0044   -0.8980   -0.7005 N   0  0  0  0  0  0  0  0  0  0  0  0
   -3.7913    0.8494    0.4188 H   0  0  0  0  0  0  0  0  0  0  0  0
   -3.3606   -0.6054    1.4746 H   0  0  0  0  0  0  0  0  0  0  0  0
   -2.8155    1.0834    1.9005 H   0  0  0  0  0  0  0  0  0  0  0  0
   -0.4923    0.8616    1.8223 H   0  0  0  0  0  0  0  0  0  0  0  0
   -0.8242   -0.8668    1.8932 H   0  0  0  0  0  0  0  0  0  0  0  0
    1.6079    0.9542   -0.9684 H   0  0  0  0  0  0  0  0  0  0  0  0
    1.6118    1.6333    0.7233 H   0  0  0  0  0  0  0  0  0  0  0  0
    3.1972    0.1131    1.4810 H   0  0  0  0  0  0  0  0  0  0  0  0
    4.1243    1.5923   -0.1293 H   0  0  0  0  0  0  0  0  0  0  0  0
    3.0722   -1.5074   -1.0968 H   0  0  0  0  0  0  0  0  0  0  0  0
    3.3143   -2.0205    0.6250 H   0  0  0  0  0  0  0  0  0  0  0  0
   -0.7071    1.2027   -1.3841 H   0  0  0  0  0  0  0  0  0  0  0  0
   -2.1351    2.0766   -0.6985 H   0  0  0  0  0  0  0  0  0  0  0  0
   -1.8505   -1.9261   -0.8224 H   0  0  0  0  0  0  0  0  0  0  0  0
  2  1  1  1
  2  3  1  0
  3  4  1  0
  4  5  1  0
  5  6  1  0
  6  7  1  0
  6  8  1  0
  8  9  1  0
  9 10  2  0
  2 11  1  0
 11 12  1  0
 12 13  2  0
 12 14  1  0
 14  2  1  0
  9  4  1  0
  1 15  1  0
  1 16  1  0
  1 17  1  0
  3 18  1  0
  3 19  1  0
  5 20  1  0
  5 21  1  0
  6 22  1  1
  7 23  1  0
  8 24  1  0
  8 25  1  0
 11 26  1  0
 11 27  1  0
 14 28  1  0
M  END
$$$$

     RDKit          3D

 28 29  0  0  0  0  0  0  0  0999 V2000
   -1.5115    0.2819   -1.4191 C   0  0  0  0  0  0  0  0  0  0  0  0
   -1.6092   -0.2912   -0.0209 C   0  0  2  0  0  0  0  0  0  0  0  0
   -0.4506   -1.1622    0.3691 C   0  0  0  0  0  0  0  0  0  0  0  0
    0.8093   -0.4867    0.3420 N   0  0  0  0  0  0  0  0  0  0  0  0
    1.7070   -0.3944   -0.7889 C   0  0  0  0  0  0  0  0  0  0  0  0
    2.5776    0.8117   -0.5161 C   0  0  2  0  0  0  0  0  0  0  0  0
    3.8448    0.6298   -1.0664 O   0  0  0  0  0  0  0  0  0  0  0  0
    2.6982    0.8207    0.9797 C   0  0  0  0  0  0  0  0  0  0  0  0
    1.4095    0.2149    1.4176 C   0  0  0  0  0  0  0  0  0  0  0  0
    0.9145    0.3036    2.5665 O   0  0  0  0  0  0  0  0  0  0  0  0
   -2.9524   -0.9460    0.2218 C   0  0  0  0  0  0  0  0  0  0  0  0
   -3.3681    0.4333    0.5899 C   0  0  0  0  0  0  0  0  0  0  0  0
   -4.4893    1.0017    0.5800 O   0  0  0  0  0  0  0  0  0  0  0  0
   -2.0153    0.7025    0.9054 N   0  0  0  0  0  0  0  0  0  0  0  0
   -0.8164    1.1347   -1.4336 H   0  0  0  0  0  0  0  0  0  0  0  0
   -1.2482   -0.5161   -2.1297 H   0  0  0  0  0  0  0  0  0  0  0  0
   -2.5177    0.7123   -1.6981 H   0  0  0  0  0  0  0  0  0  0  0  0
   -0.4692   -2.0456   -0.3330 H   0  0  0  0  0  0  0  0  0  0  0  0
   -0.6883   -1.6033    1.3699 H   0  0  0  0  0  0  0  0  0  0  0  0
    1.1011   -0.2797   -1.7098 H   0  0  0  0  0  0  0  0  0  0  0  0
    2.3553   -1.3142   -0.8652 H   0  0  0  0  0  0  0  0  0  0  0  0
    2.1151    1.7304   -0.9052 H   0  0  0  0  0  0  0  0  0  0  0  0
    4.2038   -0.2498   -0.7551 H   0  0  0  0  0  0  0  0  0  0  0  0
    3.5723    0.2225    1.3261 H   0  0  0  0  0  0  0  0  0  0  0  0
    2.7768    1.8805    1.3121 H   0  0  0  0  0  0  0  0  0  0  0  0
   -2.9964   -1.6146    1.0883 H   0  0  0  0  0  0  0  0  0  0  0  0
   -3.3965   -1.3391   -0.7116 H   0  0  0  0  0  0  0  0  0  0  0  0
   -1.5563    1.3623    1.5527 H   0  0  0  0  0  0  0  0  0  0  0  0
  2  1  1  6
  2  3  1  0
  3  4  1  0
  4  5  1  0
  5  6  1  0
  6  7  1  0
  6  8  1  0
  8  9  1  0
  9 10  2  0
  2 11  1  0
 11 12  1  0
 12 13  2  0
 12 14  1  0
 14  2  1  0
  9  4  1  0
  1 15  1  0
  1 16  1  0
  1 17  1  0
  3 18  1  0
  3 19  1  0
  5 20  1  0
  5 21  1  0
  6 22  1  6
  7 23  1  0
  8 24  1  0
  8 25  1  0
 11 26  1  0
 11 27  1  0
 14 28  1  0
M  END
$$$$

     RDKit          3D

 28 29  0  0  0  0  0  0  0  0999 V2000
   -1.5598   -0.0531   -1.6754 C   0  0  0  0  0  0  0  0  0  0  0  0
   -1.6171   -0.1793   -0.1876 C   0  0  2  0  0  0  0  0  0  0  0  0
   -0.4615   -0.8072    0.4996 C   0  0  0  0  0  0  0  0  0  0  0  0
    0.8000   -0.1804    0.3434 N   0  0  0  0  0  0  0  0  0  0  0  0
    1.6864   -0.5580   -0.7671 C   0  0  0  0  0  0  0  0  0  0  0  0
    3.0368    0.0504   -0.3714 C   0  0  2  0  0  0  0  0  0  0  0  0
    3.6469   -0.6951    0.6294 O   0  0  0  0  0  0  0  0  0  0  0  0
    2.5449    1.3491    0.2811 C   0  0  0  0  0  0  0  0  0  0  0  0
    1.4336    0.8312    1.1147 C   0  0  0  0  0  0  0  0  0  0  0  0
    1.0864    1.1818    2.2670 O   0  0  0  0  0  0  0  0  0  0  0  0
   -2.8979   -0.9213    0.1973 C   0  0  0  0  0  0  0  0  0  0  0  0
   -3.3304    0.2235    1.0219 C   0  0  0  0  0  0  0  0  0  0  0  0
   -4.2953    0.3835    1.8108 O   0  0  0  0  0  0  0  0  0  0  0  0
   -2.2164    0.9475    0.5099 N   0  0  0  0  0  0  0  0  0  0  0  0
   -1.3877   -1.0127   -2.1610 H   0  0  0  0  0  0  0  0  0  0  0  0
   -2.5859    0.2823   -2.0091 H   0  0  0  0  0  0  0  0  0  0  0  0
   -0.8628    0.6877   -2.0583 H   0  0  0  0  0  0  0  0  0  0  0  0
   -0.3961   -1.8777    0.2199 H   0  0  0  0  0  0  0  0  0  0  0  0
   -0.6966   -0.8150    1.5967 H   0  0  0  0  0  0  0  0  0  0  0  0
    1.8384   -1.6543   -0.7669 H   0  0  0  0  0  0  0  0  0  0  0  0
    1.3571   -0.1575   -1.7231 H   0  0  0  0  0  0  0  0  0  0  0  0
    3.6701    0.2348   -1.2378 H   0  0  0  0  0  0  0  0  0  0  0  0
    3.9825   -0.0905    1.3181 H   0  0  0  0  0  0  0  0  0  0  0  0
    2.1881    1.9915   -0.5508 H   0  0  0  0  0  0  0  0  0  0  0  0
    3.3411    1.8298    0.8716 H   0  0  0  0  0  0  0  0  0  0  0  0
   -3.5813   -1.1378   -0.6270 H   0  0  0  0  0  0  0  0  0  0  0  0
   -2.7545   -1.8085    0.8223 H   0  0  0  0  0  0  0  0  0  0  0  0
   -1.9690    1.9555    0.6320 H   0  0  0  0  0  0  0  0  0  0  0  0
  2  1  1  6
  2  3  1  0
  3  4  1  0
  4  5  1  0
  5  6  1  0
  6  7  1  0
  6  8  1  0
  8  9  1  0
  9 10  2  0
  2 11  1  0
 11 12  1  0
 12 13  2  0
 12 14  1  0
 14  2  1  0
  9  4  1  0
  1 15  1  0
  1 16  1  0
  1 17  1  0
  3 18  1  0
  3 19  1  0
  5 20  1  0
  5 21  1  0
  6 22  1  6
  7 23  1  0
  8 24  1  0
  8 25  1  0
 11 26  1  0
 11 27  1  0
 14 28  1  0
M  END
$$$$

     RDKit          3D

 28 29  0  0  0  0  0  0  0  0999 V2000
    1.8331   -1.4687    0.6384 C   0  0  0  0  0  0  0  0  0  0  0  0
    1.6885   -0.0374    0.2236 C   0  0  2  0  0  0  0  0  0  0  0  0
    0.4538    0.6733    0.6681 C   0  0  0  0  0  0  0  0  0  0  0  0
   -0.7724    0.1058    0.2149 N   0  0  0  0  0  0  0  0  0  0  0  0
   -1.4667    0.4392   -1.0181 C   0  0  0  0  0  0  0  0  0  0  0  0
   -2.9265    0.3499   -0.5870 C   0  0  2  0  0  0  0  0  0  0  0  0
   -3.2685    1.3797    0.2724 O   0  0  0  0  0  0  0  0  0  0  0  0
   -2.8895   -1.0019    0.1383 C   0  0  0  0  0  0  0  0  0  0  0  0
   -1.5787   -0.8877    0.8418 C   0  0  0  0  0  0  0  0  0  0  0  0
   -1.2875   -1.5857    1.8284 O   0  0  0  0  0  0  0  0  0  0  0  0
    2.1411    0.2055   -1.1827 C   0  0  0  0  0  0  0  0  0  0  0  0
    2.9244    1.3259   -0.6281 C   0  0  0  0  0  0  0  0  0  0  0  0
    3.4324    2.3743   -1.0663 O   0  0  0  0  0  0  0  0  0  0  0  0
    2.8627    0.7093    0.6378 N   0  0  0  0  0  0  0  0  0  0  0  0
    1.3402   -2.1225   -0.1105 H   0  0  0  0  0  0  0  0  0  0  0  0
    1.4566   -1.6461    1.6664 H   0  0  0  0  0  0  0  0  0  0  0  0
    2.9044   -1.7803    0.6547 H   0  0  0  0  0  0  0  0  0  0  0  0
    0.5303    1.7283    0.3189 H   0  0  0  0  0  0  0  0  0  0  0  0
    0.5086    0.7469    1.7942 H   0  0  0  0  0  0  0  0  0  0  0  0
   -1.3305   -0.3451   -1.7898 H   0  0  0  0  0  0  0  0  0  0  0  0
   -1.2254    1.4416   -1.3867 H   0  0  0  0  0  0  0  0  0  0  0  0
   -3.6157    0.3170   -1.4316 H   0  0  0  0  0  0  0  0  0  0  0  0
   -2.6966    1.3514    1.0918 H   0  0  0  0  0  0  0  0  0  0  0  0
   -3.7334   -1.0714    0.8585 H   0  0  0  0  0  0  0  0  0  0  0  0
   -2.8553   -1.8060   -0.5944 H   0  0  0  0  0  0  0  0  0  0  0  0
    1.3584    0.4861   -1.9101 H   0  0  0  0  0  0  0  0  0  0  0  0
    2.8288   -0.6002   -1.5139 H   0  0  0  0  0  0  0  0  0  0  0  0
    3.3834    0.7187    1.5398 H   0  0  0  0  0  0  0  0  0  0  0  0
  2  1  1  1
  2  3  1  0
  3  4  1  0
  4  5  1  0
  5  6  1  0
  6  7  1  0
  6  8  1  0
  8  9  1  0
  9 10  2  0
  2 11  1  0
 11 12  1  0
 12 13  2  0
 12 14  1  0
 14  2  1  0
  9  4  1  0
  1 15  1  0
  1 16  1  0
  1 17  1  0
  3 18  1  0
  3 19  1  0
  5 20  1  0
  5 21  1  0
  6 22  1  6
  7 23  1  0
  8 24  1  0
  8 25  1  0
 11 26  1  0
 11 27  1  0
 14 28  1  0
M  END
$$$$

     RDKit          3D

 28 29  0  0  0  0  0  0  0  0999 V2000
   -1.7832   -1.4326    0.4438 C   0  0  0  0  0  0  0  0  0  0  0  0
   -1.7091   -0.0927   -0.2594 C   0  0  2  0  0  0  0  0  0  0  0  0
   -0.6703    0.0193   -1.3274 C   0  0  0  0  0  0  0  0  0  0  0  0
    0.6597   -0.2041   -0.8046 N   0  0  0  0  0  0  0  0  0  0  0  0
    1.4981    0.8641   -0.2853 C   0  0  0  0  0  0  0  0  0  0  0  0
    2.8545    0.2800   -0.0505 C   0  0  2  0  0  0  0  0  0  0  0  0
    3.8479    1.0035   -0.7383 O   0  0  0  0  0  0  0  0  0  0  0  0
    2.8488   -1.1200   -0.5712 C   0  0  0  0  0  0  0  0  0  0  0  0
    1.3838   -1.4144   -0.6907 C   0  0  0  0  0  0  0  0  0  0  0  0
    0.8624   -2.5693   -0.6907 O   0  0  0  0  0  0  0  0  0  0  0  0
   -1.8416    1.0967    0.6346 C   0  0  0  0  0  0  0  0  0  0  0  0
   -3.1835    1.3638    0.0594 C   0  0  0  0  0  0  0  0  0  0  0  0
   -4.0688    2.2332    0.2599 O   0  0  0  0  0  0  0  0  0  0  0  0
   -3.0258    0.2392   -0.7878 N   0  0  0  0  0  0  0  0  0  0  0  0
   -0.9255   -1.5526    1.1329 H   0  0  0  0  0  0  0  0  0  0  0  0
   -2.6938   -1.4735    1.0653 H   0  0  0  0  0  0  0  0  0  0  0  0
   -1.8375   -2.2519   -0.2833 H   0  0  0  0  0  0  0  0  0  0  0  0
   -0.9262   -0.7390   -2.1191 H   0  0  0  0  0  0  0  0  0  0  0  0
   -0.7640    1.0130   -1.7929 H   0  0  0  0  0  0  0  0  0  0  0  0
    1.5798    1.7163   -0.9663 H   0  0  0  0  0  0  0  0  0  0  0  0
    1.0641    1.1503    0.6976 H   0  0  0  0  0  0  0  0  0  0  0  0
    3.1211    0.2854    1.0347 H   0  0  0  0  0  0  0  0  0  0  0  0
    3.7812    1.9560   -0.4897 H   0  0  0  0  0  0  0  0  0  0  0  0
    3.2340   -1.1447   -1.6283 H   0  0  0  0  0  0  0  0  0  0  0  0
    3.3665   -1.8454    0.0812 H   0  0  0  0  0  0  0  0  0  0  0  0
   -1.1735    1.9589    0.3852 H   0  0  0  0  0  0  0  0  0  0  0  0
   -1.8564    0.8389    1.7229 H   0  0  0  0  0  0  0  0  0  0  0  0
   -3.6428   -0.1786   -1.5165 H   0  0  0  0  0  0  0  0  0  0  0  0
  2  1  1  1
  2  3  1  0
  3  4  1  0
  4  5  1  0
  5  6  1  0
  6  7  1  0
  6  8  1  0
  8  9  1  0
  9 10  2  0
  2 11  1  0
 11 12  1  0
 12 13  2  0
 12 14  1  0
 14  2  1  0
  9  4  1  0
  1 15  1  0
  1 16  1  0
  1 17  1  0
  3 18  1  0
  3 19  1  0
  5 20  1  0
  5 21  1  0
  6 22  1  1
  7 23  1  0
  8 24  1  0
  8 25  1  0
 11 26  1  0
 11 27  1  0
 14 28  1  0
M  END
$$$$
