
     RDKit          3D

 31 32  0  0  0  0  0  0  0  0999 V2000
    5.3594   -0.1698    0.6859 C   0  0  0  0  0  0  0  0  0  0  0  0
    4.0630   -0.6349    0.6434 O   0  0  0  0  0  0  0  0  0  0  0  0
    3.3677   -0.0918   -0.4301 C   0  0  0  0  0  0  0  0  0  0  0  0
    1.9744   -0.6375   -0.4151 C   0  0  0  0  0  0  0  0  0  0  0  0
    1.2069   -0.3120    0.8503 C   0  0  0  0  0  0  0  0  0  0  0  0
    0.0765    0.0176    0.0284 N   0  0  0  0  0  0  0  0  0  0  0  0
   -1.3181    0.0574    0.2115 C   0  0  0  0  0  0  0  0  0  0  0  0
   -1.8556   -0.4540    1.2566 N   0  0  0  0  0  0  0  0  0  0  0  0
   -3.2575   -0.4726    1.5491 C   0  0  0  0  0  0  0  0  0  0  0  0
   -4.0969   -0.1608    0.3278 C   0  0  1  0  0  0  0  0  0  0  0  0
   -5.4034    0.0928    0.6639 O   0  0  0  0  0  0  0  0  0  0  0  0
   -3.4818    1.0504   -0.3758 C   0  0  0  0  0  0  0  0  0  0  0  0
   -2.1458    0.6678   -0.7652 N   0  0  0  0  0  0  0  0  0  0  0  0
    0.9815    0.2939   -1.0766 C   0  0  0  0  0  0  0  0  0  0  0  0
    5.3982    0.9312    0.7913 H   0  0  0  0  0  0  0  0  0  0  0  0
    5.9405   -0.4387   -0.2069 H   0  0  0  0  0  0  0  0  0  0  0  0
    5.8166   -0.5854    1.6268 H   0  0  0  0  0  0  0  0  0  0  0  0
    3.3234    1.0156   -0.3258 H   0  0  0  0  0  0  0  0  0  0  0  0
    3.8212   -0.3113   -1.4072 H   0  0  0  0  0  0  0  0  0  0  0  0
    1.8489   -1.6693   -0.7597 H   0  0  0  0  0  0  0  0  0  0  0  0
    1.0408   -1.1767    1.5136 H   0  0  0  0  0  0  0  0  0  0  0  0
    1.6066    0.5450    1.4004 H   0  0  0  0  0  0  0  0  0  0  0  0
   -3.5913   -1.4384    1.9448 H   0  0  0  0  0  0  0  0  0  0  0  0
   -3.4568    0.3003    2.3186 H   0  0  0  0  0  0  0  0  0  0  0  0
   -3.9843   -1.0080   -0.3897 H   0  0  0  0  0  0  0  0  0  0  0  0
   -5.8229   -0.7869    0.9050 H   0  0  0  0  0  0  0  0  0  0  0  0
   -3.4121    1.8634    0.3621 H   0  0  0  0  0  0  0  0  0  0  0  0
   -4.1256    1.3234   -1.2317 H   0  0  0  0  0  0  0  0  0  0  0  0
   -1.7894    0.8302   -1.7322 H   0  0  0  0  0  0  0  0  0  0  0  0
    1.2914    1.3631   -1.0868 H   0  0  0  0  0  0  0  0  0  0  0  0
    0.6244   -0.0040   -2.0651 H   0  0  0  0  0  0  0  0  0  0  0  0
  1  2  1  0
  2  3  1  0
  3  4  1  0
  4  5  1  0
  5  6  1  0
  6  7  1  0
  7  8  2  0
  8  9  1  0
  9 10  1  0
 10 11  1  0
 10 12  1  0
 12 13  1  0
  6 14  1  0
 14  4  1  0
 13  7  1  0
  1 15  1  0
  1 16  1  0
  1 17  1  0
  3 18  1  0
  3 19  1  0
  4 20  1  0
  5 21  1  0
  5 22  1  0
  9 23  1  0
  9 24  1  0
 10 25  1  6
 11 26  1  0
 12 27  1  0
 12 28  1  0
 13 29  1  0
 14 30  1  0
 14 31  1  0
M  END
$$$$

     RDKit          3D

 31 32  0  0  0  0  0  0  0  0999 V2000
    4.4023   -0.9009   -0.1470 C   0  0  0  0  0  0  0  0  0  0  0  0
    4.3102    0.3741   -0.5824 O   0  0  0  0  0  0  0  0  0  0  0  0
    3.4816    1.2236   -0.0145 C   0  0  0  0  0  0  0  0  0  0  0  0
    2.0335    1.1122    0.0674 C   0  0  0  0  0  0  0  0  0  0  0  0
    1.3685   -0.0064    0.7787 C   0  0  0  0  0  0  0  0  0  0  0  0
    0.2387    0.2167   -0.1649 N   0  0  0  0  0  0  0  0  0  0  0  0
   -1.1479    0.1306   -0.0371 C   0  0  0  0  0  0  0  0  0  0  0  0
   -1.7019    0.2412    1.1174 N   0  0  0  0  0  0  0  0  0  0  0  0
   -3.1248    0.1561    1.2731 C   0  0  0  0  0  0  0  0  0  0  0  0
   -3.7967   -0.7973    0.3457 C   0  0  1  0  0  0  0  0  0  0  0  0
   -5.1567   -0.4776    0.2855 O   0  0  0  0  0  0  0  0  0  0  0  0
   -3.2577   -0.8116   -1.0445 C   0  0  0  0  0  0  0  0  0  0  0  0
   -1.9956   -0.0800   -1.1564 N   0  0  0  0  0  0  0  0  0  0  0  0
    1.2996    0.5242   -1.1259 C   0  0  0  0  0  0  0  0  0  0  0  0
    5.2600   -1.4147   -0.7309 H   0  0  0  0  0  0  0  0  0  0  0  0
    4.5942   -1.0603    0.9271 H   0  0  0  0  0  0  0  0  0  0  0  0
    3.5084   -1.5351   -0.4108 H   0  0  0  0  0  0  0  0  0  0  0  0
    3.8241    1.4705    1.0788 H   0  0  0  0  0  0  0  0  0  0  0  0
    3.6810    2.2744   -0.4771 H   0  0  0  0  0  0  0  0  0  0  0  0
    1.4871    2.0707    0.3330 H   0  0  0  0  0  0  0  0  0  0  0  0
    1.6731   -1.0407    0.6296 H   0  0  0  0  0  0  0  0  0  0  0  0
    1.0443    0.2302    1.8337 H   0  0  0  0  0  0  0  0  0  0  0  0
   -3.3183   -0.1489    2.3315 H   0  0  0  0  0  0  0  0  0  0  0  0
   -3.5724    1.1833    1.1352 H   0  0  0  0  0  0  0  0  0  0  0  0
   -3.7109   -1.8185    0.7924 H   0  0  0  0  0  0  0  0  0  0  0  0
   -5.4264   -0.0417    1.1412 H   0  0  0  0  0  0  0  0  0  0  0  0
   -3.9631   -0.3510   -1.7897 H   0  0  0  0  0  0  0  0  0  0  0  0
   -3.0987   -1.8563   -1.3878 H   0  0  0  0  0  0  0  0  0  0  0  0
   -1.6803    0.3141   -2.0852 H   0  0  0  0  0  0  0  0  0  0  0  0
    1.7180   -0.4211   -1.5098 H   0  0  0  0  0  0  0  0  0  0  0  0
    1.0268    1.2404   -1.9022 H   0  0  0  0  0  0  0  0  0  0  0  0
  1  2  1  0
  2  3  1  0
  3  4  1  0
  4  5  1  0
  5  6  1  0
  6  7  1  0
  7  8  2  0
  8  9  1  0
  9 10  1  0
 10 11  1  0
 10 12  1  0
 12 13  1  0
  6 14  1  0
 14  4  1  0
 13  7  1  0
  1 15  1  0
  1 16  1  0
  1 17  1  0
  3 18  1  0
  3 19  1  0
  4 20  1  0
  5 21  1  0
  5 22  1  0
  9 23  1  0
  9 24  1  0
 10 25  1  1
 11 26  1  0
 12 27  1  0
 12 28  1  0
 13 29  1  0
 14 30  1  0
 14 31  1  0
M  END
$$$$

     RDKit          3D

 31 32  0  0  0  0  0  0  0  0999 V2000
    4.7781    1.0571    0.0444 C   0  0  0  0  0  0  0  0  0  0  0  0
    3.4239    0.6688   -0.0332 O   0  0  0  0  0  0  0  0  0  0  0  0
    3.3509   -0.6973    0.2153 C   0  0  0  0  0  0  0  0  0  0  0  0
    1.9115   -1.1345    0.1373 C   0  0  0  0  0  0  0  0  0  0  0  0
    0.9864   -0.4520    1.1287 C   0  0  0  0  0  0  0  0  0  0  0  0
    0.0251   -0.3740    0.0634 N   0  0  0  0  0  0  0  0  0  0  0  0
   -1.3813   -0.3808   -0.0471 C   0  0  0  0  0  0  0  0  0  0  0  0
   -2.1403   -0.6318    0.9852 N   0  0  0  0  0  0  0  0  0  0  0  0
   -3.5718   -0.6265    0.8183 C   0  0  0  0  0  0  0  0  0  0  0  0
   -4.0444    0.5363   -0.0273 C   0  0  1  0  0  0  0  0  0  0  0  0
   -3.9196    1.7253    0.6866 O   0  0  0  0  0  0  0  0  0  0  0  0
   -3.2786    0.6568   -1.3053 C   0  0  0  0  0  0  0  0  0  0  0  0
   -2.0604   -0.1200   -1.2696 N   0  0  0  0  0  0  0  0  0  0  0  0
    1.1319   -0.2853   -0.8482 C   0  0  0  0  0  0  0  0  0  0  0  0
    5.1514    0.8200    1.0749 H   0  0  0  0  0  0  0  0  0  0  0  0
    4.8332    2.1509   -0.1548 H   0  0  0  0  0  0  0  0  0  0  0  0
    5.4078    0.4889   -0.6692 H   0  0  0  0  0  0  0  0  0  0  0  0
    3.8518   -0.9999    1.1486 H   0  0  0  0  0  0  0  0  0  0  0  0
    3.8859   -1.1990   -0.6175 H   0  0  0  0  0  0  0  0  0  0  0  0
    1.7200   -2.2056    0.0903 H   0  0  0  0  0  0  0  0  0  0  0  0
    1.3345    0.5723    1.3935 H   0  0  0  0  0  0  0  0  0  0  0  0
    0.7006   -1.0793    1.9949 H   0  0  0  0  0  0  0  0  0  0  0  0
   -4.0230   -0.5308    1.8324 H   0  0  0  0  0  0  0  0  0  0  0  0
   -3.9079   -1.5750    0.3826 H   0  0  0  0  0  0  0  0  0  0  0  0
   -5.1370    0.3967   -0.2047 H   0  0  0  0  0  0  0  0  0  0  0  0
   -3.0551    1.7464    1.1805 H   0  0  0  0  0  0  0  0  0  0  0  0
   -3.0182    1.7194   -1.4695 H   0  0  0  0  0  0  0  0  0  0  0  0
   -3.8777    0.2659   -2.1691 H   0  0  0  0  0  0  0  0  0  0  0  0
   -1.6213   -0.5238   -2.1507 H   0  0  0  0  0  0  0  0  0  0  0  0
    0.9843   -0.7281   -1.8471 H   0  0  0  0  0  0  0  0  0  0  0  0
    1.5590    0.7387   -0.8528 H   0  0  0  0  0  0  0  0  0  0  0  0
  1  2  1  0
  2  3  1  0
  3  4  1  0
  4  5  1  0
  5  6  1  0
  6  7  1  0
  7  8  2  0
  8  9  1  0
  9 10  1  0
 10 11  1  0
 10 12  1  0
 12 13  1  0
  6 14  1  0
 14  4  1  0
 13  7  1  0
  1 15  1  0
  1 16  1  0
  1 17  1  0
  3 18  1  0
  3 19  1  0
  4 20  1  0
  5 21  1  0
  5 22  1  0
  9 23  1  0
  9 24  1  0
 10 25  1  6
 11 26  1  0
 12 27  1  0
 12 28  1  0
 13 29  1  0
 14 30  1  0
 14 31  1  0
M  END
$$$$

     RDKit          3D

 31 32  0  0  0  0  0  0  0  0999 V2000
    4.7005    0.7870    0.2517 C   0  0  0  0  0  0  0  0  0  0  0  0
    4.2947   -0.5426    0.3000 O   0  0  0  0  0  0  0  0  0  0  0  0
    3.3341   -0.7425   -0.6632 C   0  0  0  0  0  0  0  0  0  0  0  0
    2.1089    0.1257   -0.4807 C   0  0  0  0  0  0  0  0  0  0  0  0
    1.3768   -0.0614    0.8068 C   0  0  0  0  0  0  0  0  0  0  0  0
    0.1414   -0.3096    0.0900 N   0  0  0  0  0  0  0  0  0  0  0  0
   -1.2656   -0.3544    0.3907 C   0  0  0  0  0  0  0  0  0  0  0  0
   -1.8183    0.5264    1.1508 N   0  0  0  0  0  0  0  0  0  0  0  0
   -3.2403    0.4086    1.4029 C   0  0  0  0  0  0  0  0  0  0  0  0
   -3.9852    0.1435    0.1060 C   0  0  1  0  0  0  0  0  0  0  0  0
   -3.7545    1.1598   -0.8166 O   0  0  0  0  0  0  0  0  0  0  0  0
   -3.5143   -1.2038   -0.3975 C   0  0  0  0  0  0  0  0  0  0  0  0
   -2.0986   -1.3775   -0.1435 N   0  0  0  0  0  0  0  0  0  0  0  0
    0.9175   -0.5072   -1.1186 C   0  0  0  0  0  0  0  0  0  0  0  0
    3.8159    1.4335    0.4462 H   0  0  0  0  0  0  0  0  0  0  0  0
    5.1603    1.0077   -0.7521 H   0  0  0  0  0  0  0  0  0  0  0  0
    5.4786    0.9028    1.0587 H   0  0  0  0  0  0  0  0  0  0  0  0
    3.7403   -0.5149   -1.6777 H   0  0  0  0  0  0  0  0  0  0  0  0
    3.0481   -1.8199   -0.6308 H   0  0  0  0  0  0  0  0  0  0  0  0
    2.2319    1.1622   -0.8107 H   0  0  0  0  0  0  0  0  0  0  0  0
    1.3720    0.9100    1.3785 H   0  0  0  0  0  0  0  0  0  0  0  0
    1.7058   -0.9032    1.4515 H   0  0  0  0  0  0  0  0  0  0  0  0
   -3.6654    1.3029    1.8697 H   0  0  0  0  0  0  0  0  0  0  0  0
   -3.4433   -0.4893    2.0548 H   0  0  0  0  0  0  0  0  0  0  0  0
   -5.0588    0.0873    0.2935 H   0  0  0  0  0  0  0  0  0  0  0  0
   -3.6486    2.0387   -0.3728 H   0  0  0  0  0  0  0  0  0  0  0  0
   -3.6321   -1.1876   -1.5166 H   0  0  0  0  0  0  0  0  0  0  0  0
   -4.1046   -2.0403   -0.0097 H   0  0  0  0  0  0  0  0  0  0  0  0
   -1.6722   -2.3086   -0.3678 H   0  0  0  0  0  0  0  0  0  0  0  0
    0.9896   -1.5943   -1.3355 H   0  0  0  0  0  0  0  0  0  0  0  0
    0.4855    0.0887   -1.9581 H   0  0  0  0  0  0  0  0  0  0  0  0
  1  2  1  0
  2  3  1  0
  3  4  1  0
  4  5  1  0
  5  6  1  0
  6  7  1  0
  7  8  2  0
  8  9  1  0
  9 10  1  0
 10 11  1  0
 10 12  1  0
 12 13  1  0
  6 14  1  0
 14  4  1  0
 13  7  1  0
  1 15  1  0
  1 16  1  0
  1 17  1  0
  3 18  1  0
  3 19  1  0
  4 20  1  0
  5 21  1  0
  5 22  1  0
  9 23  1  0
  9 24  1  0
 10 25  1  1
 11 26  1  0
 12 27  1  0
 12 28  1  0
 13 29  1  0
 14 30  1  0
 14 31  1  0
M  END
$$$$

     RDKit          3D

 31 32  0  0  0  0  0  0  0  0999 V2000
   -4.8684    1.1672    0.5731 C   0  0  0  0  0  0  0  0  0  0  0  0
   -3.5014    0.9296    0.3102 O   0  0  0  0  0  0  0  0  0  0  0  0
   -3.4380   -0.2735   -0.3694 C   0  0  0  0  0  0  0  0  0  0  0  0
   -2.0518   -0.6927   -0.7357 C   0  0  0  0  0  0  0  0  0  0  0  0
   -1.0848   -0.8942    0.3801 C   0  0  0  0  0  0  0  0  0  0  0  0
   -0.0709   -0.2363   -0.4180 N   0  0  0  0  0  0  0  0  0  0  0  0
    1.3617   -0.2228   -0.4355 C   0  0  0  0  0  0  0  0  0  0  0  0
    2.0015    0.7888   -0.9306 N   0  0  0  0  0  0  0  0  0  0  0  0
    3.4331    0.7946   -0.9446 C   0  0  0  0  0  0  0  0  0  0  0  0
    4.0287    0.2390    0.3063 C   0  0  1  0  0  0  0  0  0  0  0  0
    3.8245    1.1749    1.3442 O   0  0  0  0  0  0  0  0  0  0  0  0
    3.4289   -1.0787    0.6667 C   0  0  0  0  0  0  0  0  0  0  0  0
    2.1301   -1.2953    0.0774 N   0  0  0  0  0  0  0  0  0  0  0  0
   -1.1221    0.3990   -1.1870 C   0  0  0  0  0  0  0  0  0  0  0  0
   -5.2945    0.3343    1.1995 H   0  0  0  0  0  0  0  0  0  0  0  0
   -5.0315    2.0895    1.1377 H   0  0  0  0  0  0  0  0  0  0  0  0
   -5.4671    1.1993   -0.3403 H   0  0  0  0  0  0  0  0  0  0  0  0
   -4.0355   -0.2117   -1.3048 H   0  0  0  0  0  0  0  0  0  0  0  0
   -3.8718   -1.0510    0.2816 H   0  0  0  0  0  0  0  0  0  0  0  0
   -2.0590   -1.5285   -1.4442 H   0  0  0  0  0  0  0  0  0  0  0  0
   -1.2619   -0.3196    1.3095 H   0  0  0  0  0  0  0  0  0  0  0  0
   -0.8424   -1.9637    0.5334 H   0  0  0  0  0  0  0  0  0  0  0  0
    3.8011    1.8345   -1.1014 H   0  0  0  0  0  0  0  0  0  0  0  0
    3.7937    0.1961   -1.8075 H   0  0  0  0  0  0  0  0  0  0  0  0
    5.1320    0.0975    0.1190 H   0  0  0  0  0  0  0  0  0  0  0  0
    4.0862    2.0800    1.0137 H   0  0  0  0  0  0  0  0  0  0  0  0
    3.3284   -1.1411    1.7838 H   0  0  0  0  0  0  0  0  0  0  0  0
    4.1230   -1.9218    0.3907 H   0  0  0  0  0  0  0  0  0  0  0  0
    1.7293   -2.2699    0.0204 H   0  0  0  0  0  0  0  0  0  0  0  0
   -1.3483    1.4167   -0.8529 H   0  0  0  0  0  0  0  0  0  0  0  0
   -0.8528    0.3600   -2.2705 H   0  0  0  0  0  0  0  0  0  0  0  0
  1  2  1  0
  2  3  1  0
  3  4  1  0
  4  5  1  0
  5  6  1  0
  6  7  1  0
  7  8  2  0
  8  9  1  0
  9 10  1  0
 10 11  1  0
 10 12  1  0
 12 13  1  0
  6 14  1  0
 14  4  1  0
 13  7  1  0
  1 15  1  0
  1 16  1  0
  1 17  1  0
  3 18  1  0
  3 19  1  0
  4 20  1  0
  5 21  1  0
  5 22  1  0
  9 23  1  0
  9 24  1  0
 10 25  1  6
 11 26  1  0
 12 27  1  0
 12 28  1  0
 13 29  1  0
 14 30  1  0
 14 31  1  0
M  END
$$$$

     RDKit          3D

 31 32  0  0  0  0  0  0  0  0999 V2000
    5.4088    0.2989   -0.4239 C   0  0  0  0  0  0  0  0  0  0  0  0
    4.1320   -0.1120   -0.8514 O   0  0  0  0  0  0  0  0  0  0  0  0
    3.3780   -0.3118    0.2922 C   0  0  0  0  0  0  0  0  0  0  0  0
    1.9714   -0.7594   -0.0147 C   0  0  0  0  0  0  0  0  0  0  0  0
    1.1685    0.2094   -0.8489 C   0  0  0  0  0  0  0  0  0  0  0  0
    0.0595   -0.0019    0.0586 N   0  0  0  0  0  0  0  0  0  0  0  0
   -1.3510    0.0650   -0.0065 C   0  0  0  0  0  0  0  0  0  0  0  0
   -2.0168   -0.4662   -0.9680 N   0  0  0  0  0  0  0  0  0  0  0  0
   -3.4320   -0.4581   -1.1311 C   0  0  0  0  0  0  0  0  0  0  0  0
   -4.1607    0.4134   -0.1382 C   0  0  1  0  0  0  0  0  0  0  0  0
   -5.4302   -0.1152    0.0915 O   0  0  0  0  0  0  0  0  0  0  0  0
   -3.4506    0.4544    1.2000 C   0  0  0  0  0  0  0  0  0  0  0  0
   -2.0488    0.7382    1.0194 N   0  0  0  0  0  0  0  0  0  0  0  0
    1.0308   -0.3187    1.0876 C   0  0  0  0  0  0  0  0  0  0  0  0
    5.7983   -0.5344    0.2059 H   0  0  0  0  0  0  0  0  0  0  0  0
    5.2460    1.1787    0.2231 H   0  0  0  0  0  0  0  0  0  0  0  0
    6.0785    0.5145   -1.2629 H   0  0  0  0  0  0  0  0  0  0  0  0
    3.3529    0.5847    0.9338 H   0  0  0  0  0  0  0  0  0  0  0  0
    3.8523   -1.1454    0.8723 H   0  0  0  0  0  0  0  0  0  0  0  0
    1.8657   -1.8200   -0.3130 H   0  0  0  0  0  0  0  0  0  0  0  0
    1.5542    1.2440   -0.7388 H   0  0  0  0  0  0  0  0  0  0  0  0
    0.9855   -0.1214   -1.8920 H   0  0  0  0  0  0  0  0  0  0  0  0
   -3.6663   -0.1048   -2.1602 H   0  0  0  0  0  0  0  0  0  0  0  0
   -3.7822   -1.5257   -1.0708 H   0  0  0  0  0  0  0  0  0  0  0  0
   -4.2279    1.4618   -0.5097 H   0  0  0  0  0  0  0  0  0  0  0  0
   -5.4554   -1.0872    0.0331 H   0  0  0  0  0  0  0  0  0  0  0  0
   -3.9012    1.2948    1.7831 H   0  0  0  0  0  0  0  0  0  0  0  0
   -3.5394   -0.5107    1.7452 H   0  0  0  0  0  0  0  0  0  0  0  0
   -1.5405    1.4357    1.6371 H   0  0  0  0  0  0  0  0  0  0  0  0
    1.3936    0.6168    1.5527 H   0  0  0  0  0  0  0  0  0  0  0  0
    0.7269   -1.1174    1.7877 H   0  0  0  0  0  0  0  0  0  0  0  0
  1  2  1  0
  2  3  1  0
  3  4  1  0
  4  5  1  0
  5  6  1  0
  6  7  1  0
  7  8  2  0
  8  9  1  0
  9 10  1  0
 10 11  1  0
 10 12  1  0
 12 13  1  0
  6 14  1  0
 14  4  1  0
 13  7  1  0
  1 15  1  0
  1 16  1  0
  1 17  1  0
  3 18  1  0
  3 19  1  0
  4 20  1  0
  5 21  1  0
  5 22  1  0
  9 23  1  0
  9 24  1  0
 10 25  1  6
 11 26  1  0
 12 27  1  0
 12 28  1  0
 13 29  1  0
 14 30  1  0
 14 31  1  0
M  END
$$$$

     RDKit          3D

 31 32  0  0  0  0  0  0  0  0999 V2000
   -4.2283    1.4682    0.0271 C   0  0  0  0  0  0  0  0  0  0  0  0
   -4.4911    0.1670   -0.2561 O   0  0  0  0  0  0  0  0  0  0  0  0
   -3.6383   -0.8003    0.1394 C   0  0  0  0  0  0  0  0  0  0  0  0
   -2.2727   -0.6681   -0.4224 C   0  0  0  0  0  0  0  0  0  0  0  0
   -1.4686    0.5430   -0.1229 C   0  0  0  0  0  0  0  0  0  0  0  0
   -0.2948   -0.2952    0.1767 N   0  0  0  0  0  0  0  0  0  0  0  0
    1.1264   -0.0939    0.2612 C   0  0  0  0  0  0  0  0  0  0  0  0
    1.6648    0.5531    1.2136 N   0  0  0  0  0  0  0  0  0  0  0  0
    3.0696    0.7606    1.3112 C   0  0  0  0  0  0  0  0  0  0  0  0
    3.8893    0.3609    0.1340 C   0  0  1  0  0  0  0  0  0  0  0  0
    5.1969    0.0297    0.5548 O   0  0  0  0  0  0  0  0  0  0  0  0
    3.3211   -0.8983   -0.4905 C   0  0  0  0  0  0  0  0  0  0  0  0
    1.9318   -0.6434   -0.7643 N   0  0  0  0  0  0  0  0  0  0  0  0
   -1.1927   -1.4067    0.3486 C   0  0  0  0  0  0  0  0  0  0  0  0
   -4.1165    1.6592    1.1365 H   0  0  0  0  0  0  0  0  0  0  0  0
   -5.1932    2.0575   -0.1905 H   0  0  0  0  0  0  0  0  0  0  0  0
   -3.4446    1.9634   -0.5730 H   0  0  0  0  0  0  0  0  0  0  0  0
   -4.0601   -1.7930   -0.2040 H   0  0  0  0  0  0  0  0  0  0  0  0
   -3.5239   -0.8600    1.2579 H   0  0  0  0  0  0  0  0  0  0  0  0
   -2.2492   -0.9209   -1.5122 H   0  0  0  0  0  0  0  0  0  0  0  0
   -1.2546    1.2403   -0.9699 H   0  0  0  0  0  0  0  0  0  0  0  0
   -1.7378    1.0895    0.7954 H   0  0  0  0  0  0  0  0  0  0  0  0
    3.2638    1.8577    1.5227 H   0  0  0  0  0  0  0  0  0  0  0  0
    3.4917    0.2500    2.2237 H   0  0  0  0  0  0  0  0  0  0  0  0
    3.9718    1.1414   -0.6531 H   0  0  0  0  0  0  0  0  0  0  0  0
    5.7488    0.8668    0.5762 H   0  0  0  0  0  0  0  0  0  0  0  0
    3.3848   -1.7198    0.2388 H   0  0  0  0  0  0  0  0  0  0  0  0
    3.8984   -1.1719   -1.3919 H   0  0  0  0  0  0  0  0  0  0  0  0
    1.4743   -0.8424   -1.6890 H   0  0  0  0  0  0  0  0  0  0  0  0
   -1.4512   -1.5668    1.4159 H   0  0  0  0  0  0  0  0  0  0  0  0
   -0.8158   -2.3277   -0.1462 H   0  0  0  0  0  0  0  0  0  0  0  0
  1  2  1  0
  2  3  1  0
  3  4  1  0
  4  5  1  0
  5  6  1  0
  6  7  1  0
  7  8  2  0
  8  9  1  0
  9 10  1  0
 10 11  1  0
 10 12  1  0
 12 13  1  0
  6 14  1  0
 14  4  1  0
 13  7  1  0
  1 15  1  0
  1 16  1  0
  1 17  1  0
  3 18  1  0
  3 19  1  0
  4 20  1  0
  5 21  1  0
  5 22  1  0
  9 23  1  0
  9 24  1  0
 10 25  1  6
 11 26  1  0
 12 27  1  0
 12 28  1  0
 13 29  1  0
 14 30  1  0
 14 31  1  0
M  END
$$$$

     RDKit          3D

 31 32  0  0  0  0  0  0  0  0999 V2000
    2.5647    1.0585    1.0440 C   0  0  0  0  0  0  0  0  0  0  0  0
    3.3629    0.0429    0.6549 O   0  0  0  0  0  0  0  0  0  0  0  0
    3.4892   -0.3952   -0.5915 C   0  0  0  0  0  0  0  0  0  0  0  0
    2.3319   -0.9495   -1.3353 C   0  0  0  0  0  0  0  0  0  0  0  0
    1.1994   -0.0363   -1.5620 C   0  0  0  0  0  0  0  0  0  0  0  0
    0.3691   -0.7779   -0.6607 N   0  0  0  0  0  0  0  0  0  0  0  0
   -0.9449   -0.4888   -0.1597 C   0  0  0  0  0  0  0  0  0  0  0  0
   -1.9279   -0.4583   -0.9900 N   0  0  0  0  0  0  0  0  0  0  0  0
   -3.2552   -0.1730   -0.5278 C   0  0  0  0  0  0  0  0  0  0  0  0
   -3.2108    0.9093    0.4967 C   0  0  1  0  0  0  0  0  0  0  0  0
   -4.4781    1.2603    0.9560 O   0  0  0  0  0  0  0  0  0  0  0  0
   -2.4268    0.4037    1.6852 C   0  0  0  0  0  0  0  0  0  0  0  0
   -1.2234   -0.2344    1.1986 N   0  0  0  0  0  0  0  0  0  0  0  0
    1.3645   -1.7803   -0.5446 C   0  0  0  0  0  0  0  0  0  0  0  0
    2.8181    1.9935    0.4657 H   0  0  0  0  0  0  0  0  0  0  0  0
    2.9159    1.2773    2.1414 H   0  0  0  0  0  0  0  0  0  0  0  0
    1.4965    0.8963    1.1170 H   0  0  0  0  0  0  0  0  0  0  0  0
    4.3039   -1.1859   -0.5977 H   0  0  0  0  0  0  0  0  0  0  0  0
    3.9277    0.4188   -1.2525 H   0  0  0  0  0  0  0  0  0  0  0  0
    2.6553   -1.5095   -2.2783 H   0  0  0  0  0  0  0  0  0  0  0  0
    0.7988   -0.0207   -2.6224 H   0  0  0  0  0  0  0  0  0  0  0  0
    1.3877    0.9852   -1.1746 H   0  0  0  0  0  0  0  0  0  0  0  0
   -3.6579   -1.0913   -0.0521 H   0  0  0  0  0  0  0  0  0  0  0  0
   -3.9340    0.0912   -1.3680 H   0  0  0  0  0  0  0  0  0  0  0  0
   -2.7437    1.8016    0.0614 H   0  0  0  0  0  0  0  0  0  0  0  0
   -4.3691    2.1099    1.4670 H   0  0  0  0  0  0  0  0  0  0  0  0
   -2.1197    1.2891    2.2799 H   0  0  0  0  0  0  0  0  0  0  0  0
   -3.0522   -0.2952    2.2905 H   0  0  0  0  0  0  0  0  0  0  0  0
   -0.5176   -0.5235    1.9088 H   0  0  0  0  0  0  0  0  0  0  0  0
    1.7392   -1.8481    0.5125 H   0  0  0  0  0  0  0  0  0  0  0  0
    1.1367   -2.7698   -0.9908 H   0  0  0  0  0  0  0  0  0  0  0  0
  1  2  1  0
  2  3  1  0
  3  4  1  0
  4  5  1  0
  5  6  1  0
  6  7  1  0
  7  8  2  0
  8  9  1  0
  9 10  1  0
 10 11  1  0
 10 12  1  0
 12 13  1  0
  6 14  1  0
 14  4  1  0
 13  7  1  0
  1 15  1  0
  1 16  1  0
  1 17  1  0
  3 18  1  0
  3 19  1  0
  4 20  1  0
  5 21  1  0
  5 22  1  0
  9 23  1  0
  9 24  1  0
 10 25  1  6
 11 26  1  0
 12 27  1  0
 12 28  1  0
 13 29  1  0
 14 30  1  0
 14 31  1  0
M  END
$$$$
