
     RDKit          3D

 25 25  0  0  0  0  0  0  0  0999 V2000
    4.6974   -2.1345   -0.7837 N   0  0  0  0  0  0  0  0  0  0  0  0
    3.6363   -1.6561   -0.8543 C   0  0  0  0  0  0  0  0  0  0  0  0
    2.3617   -1.0614   -0.9562 N   0  0  0  0  0  0  0  0  0  0  0  0
    2.0374    0.1112   -0.2219 C   0  0  0  0  0  0  0  0  0  0  0  0
    2.9965    0.8637    0.1986 N   0  0  0  0  0  0  0  0  0  0  0  0
    0.7072    0.5132    0.0828 N   0  0  0  0  0  0  0  0  0  0  0  0
    0.4601    1.1094    1.3734 C   0  0  0  0  0  0  0  0  0  0  0  0
   -0.8115    0.6002    2.0080 C   0  0  0  0  0  0  0  0  0  0  0  0
   -1.8382    0.4067    1.1287 O   0  0  0  0  0  0  0  0  0  0  0  0
   -1.5322   -0.2909   -0.0051 C   0  0  1  0  0  0  0  0  0  0  0  0
   -2.7587   -0.2657   -0.9152 C   0  0  0  0  0  0  0  0  0  0  0  0
   -2.5287   -0.9597   -2.1015 O   0  0  0  0  0  0  0  0  0  0  0  0
   -0.4069    0.3628   -0.8143 C   0  0  0  0  0  0  0  0  0  0  0  0
    1.6227   -1.4588   -1.5678 H   0  0  0  0  0  0  0  0  0  0  0  0
    2.8578    1.7330    0.7386 H   0  0  0  0  0  0  0  0  0  0  0  0
    0.3779    2.2108    1.2147 H   0  0  0  0  0  0  0  0  0  0  0  0
    1.2853    0.9465    2.0947 H   0  0  0  0  0  0  0  0  0  0  0  0
   -1.1335    1.3923    2.7355 H   0  0  0  0  0  0  0  0  0  0  0  0
   -0.6027   -0.3008    2.6520 H   0  0  0  0  0  0  0  0  0  0  0  0
   -1.2465   -1.3428    0.1650 H   0  0  0  0  0  0  0  0  0  0  0  0
   -3.6281   -0.7705   -0.4109 H   0  0  0  0  0  0  0  0  0  0  0  0
   -3.0757    0.7694   -1.1188 H   0  0  0  0  0  0  0  0  0  0  0  0
   -2.4995   -1.9173   -1.8917 H   0  0  0  0  0  0  0  0  0  0  0  0
   -0.7761    1.3903   -1.0587 H   0  0  0  0  0  0  0  0  0  0  0  0
   -0.2020   -0.2511   -1.6917 H   0  0  0  0  0  0  0  0  0  0  0  0
  1  2  3  0
  2  3  1  0
  3  4  1  0
  4  5  2  3
  4  6  1  0
  6  7  1  0
  7  8  1  0
  8  9  1  0
  9 10  1  0
 10 11  1  0
 11 12  1  0
 10 13  1  0
 13  6  1  0
  3 14  1  0
  5 15  1  0
  7 16  1  0
  7 17  1  0
  8 18  1  0
  8 19  1  0
 10 20  1  1
 11 21  1  0
 11 22  1  0
 12 23  1  0
 13 24  1  0
 13 25  1  0
M  END
$$$$

     RDKit          3D

 25 25  0  0  0  0  0  0  0  0999 V2000
    3.1923    4.2908   -1.6786 N   0  0  0  0  0  0  0  0  0  0  0  0
    2.7082    3.3339   -1.1569 C   0  0  0  0  0  0  0  0  0  0  0  0
    2.1250    2.2302   -0.5600 N   0  0  0  0  0  0  0  0  0  0  0  0
    0.8943    1.6581   -1.0152 C   0  0  0  0  0  0  0  0  0  0  0  0
    0.2891    2.2420   -1.9761 N   0  0  0  0  0  0  0  0  0  0  0  0
    0.3370    0.4931   -0.4504 N   0  0  0  0  0  0  0  0  0  0  0  0
   -0.1221   -0.5510   -1.3384 C   0  0  0  0  0  0  0  0  0  0  0  0
   -1.3015   -1.2759   -0.7908 C   0  0  0  0  0  0  0  0  0  0  0  0
   -1.8233   -0.6158    0.2833 O   0  0  0  0  0  0  0  0  0  0  0  0
   -0.9693   -0.5274    1.3463 C   0  0  1  0  0  0  0  0  0  0  0  0
   -0.5599   -1.8954    1.8047 C   0  0  0  0  0  0  0  0  0  0  0  0
   -1.6631   -2.6599    2.1867 O   0  0  0  0  0  0  0  0  0  0  0  0
    0.2260    0.3384    1.0022 C   0  0  0  0  0  0  0  0  0  0  0  0
    2.5548    1.7355    0.2744 H   0  0  0  0  0  0  0  0  0  0  0  0
   -0.6001    1.8918   -2.3584 H   0  0  0  0  0  0  0  0  0  0  0  0
   -0.3974   -0.1144   -2.3396 H   0  0  0  0  0  0  0  0  0  0  0  0
    0.6975   -1.2698   -1.5739 H   0  0  0  0  0  0  0  0  0  0  0  0
   -0.9957   -2.3297   -0.5569 H   0  0  0  0  0  0  0  0  0  0  0  0
   -2.0673   -1.3718   -1.6087 H   0  0  0  0  0  0  0  0  0  0  0  0
   -1.5321   -0.0612    2.1958 H   0  0  0  0  0  0  0  0  0  0  0  0
    0.0557   -1.7778    2.7529 H   0  0  0  0  0  0  0  0  0  0  0  0
    0.0831   -2.4429    1.1193 H   0  0  0  0  0  0  0  0  0  0  0  0
   -2.3464   -2.6278    1.4649 H   0  0  0  0  0  0  0  0  0  0  0  0
    1.1633   -0.0436    1.4290 H   0  0  0  0  0  0  0  0  0  0  0  0
    0.0518    1.3506    1.4195 H   0  0  0  0  0  0  0  0  0  0  0  0
  1  2  3  0
  2  3  1  0
  3  4  1  0
  4  5  2  3
  4  6  1  0
  6  7  1  0
  7  8  1  0
  8  9  1  0
  9 10  1  0
 10 11  1  0
 11 12  1  0
 10 13  1  0
 13  6  1  0
  3 14  1  0
  5 15  1  0
  7 16  1  0
  7 17  1  0
  8 18  1  0
  8 19  1  0
 10 20  1  1
 11 21  1  0
 11 22  1  0
 12 23  1  0
 13 24  1  0
 13 25  1  0
M  END
$$$$

     RDKit          3D

 25 25  0  0  0  0  0  0  0  0999 V2000
    4.0953   -3.0122   -1.6792 N   0  0  0  0  0  0  0  0  0  0  0  0
    3.2583   -2.5462   -0.9943 C   0  0  0  0  0  0  0  0  0  0  0  0
    2.2696   -2.0053   -0.1679 N   0  0  0  0  0  0  0  0  0  0  0  0
    1.2698   -1.1612   -0.7608 C   0  0  0  0  0  0  0  0  0  0  0  0
    0.9223   -1.3737   -1.9907 N   0  0  0  0  0  0  0  0  0  0  0  0
    0.6621   -0.1079   -0.0279 N   0  0  0  0  0  0  0  0  0  0  0  0
    1.2268    1.2093   -0.0607 C   0  0  0  0  0  0  0  0  0  0  0  0
    0.0518    2.1913   -0.0948 C   0  0  0  0  0  0  0  0  0  0  0  0
   -0.7013    1.9588    1.0237 O   0  0  0  0  0  0  0  0  0  0  0  0
   -1.3681    0.7668    1.0527 C   0  0  1  0  0  0  0  0  0  0  0  0
   -2.5834    0.7886    0.1299 C   0  0  0  0  0  0  0  0  0  0  0  0
   -3.1781   -0.4667    0.2411 O   0  0  0  0  0  0  0  0  0  0  0  0
   -0.5270   -0.4324    0.7327 C   0  0  0  0  0  0  0  0  0  0  0  0
    2.2135   -2.1786    0.8593 H   0  0  0  0  0  0  0  0  0  0  0  0
    1.3581   -2.1407   -2.5397 H   0  0  0  0  0  0  0  0  0  0  0  0
    1.8357    1.3380    0.8516 H   0  0  0  0  0  0  0  0  0  0  0  0
    1.8465    1.3732   -0.9598 H   0  0  0  0  0  0  0  0  0  0  0  0
    0.4857    3.2093   -0.0139 H   0  0  0  0  0  0  0  0  0  0  0  0
   -0.4823    2.0229   -1.0494 H   0  0  0  0  0  0  0  0  0  0  0  0
   -1.7710    0.6309    2.0910 H   0  0  0  0  0  0  0  0  0  0  0  0
   -3.3133    1.5606    0.4800 H   0  0  0  0  0  0  0  0  0  0  0  0
   -2.2661    0.9647   -0.9258 H   0  0  0  0  0  0  0  0  0  0  0  0
   -4.0109   -0.4429    0.7657 H   0  0  0  0  0  0  0  0  0  0  0  0
   -0.1886   -0.9697    1.6417 H   0  0  0  0  0  0  0  0  0  0  0  0
   -1.1053   -1.1769    0.1336 H   0  0  0  0  0  0  0  0  0  0  0  0
  1  2  3  0
  2  3  1  0
  3  4  1  0
  4  5  2  3
  4  6  1  0
  6  7  1  0
  7  8  1  0
  8  9  1  0
  9 10  1  0
 10 11  1  0
 11 12  1  0
 10 13  1  0
 13  6  1  0
  3 14  1  0
  5 15  1  0
  7 16  1  0
  7 17  1  0
  8 18  1  0
  8 19  1  0
 10 20  1  1
 11 21  1  0
 11 22  1  0
 12 23  1  0
 13 24  1  0
 13 25  1  0
M  END
$$$$

     RDKit          3D

 25 25  0  0  0  0  0  0  0  0999 V2000
    3.8766    3.5470   -0.8659 N   0  0  0  0  0  0  0  0  0  0  0  0
    3.1513    2.7657   -0.3807 C   0  0  0  0  0  0  0  0  0  0  0  0
    2.2705    1.8306    0.1791 N   0  0  0  0  0  0  0  0  0  0  0  0
    1.9321    0.6046   -0.4801 C   0  0  0  0  0  0  0  0  0  0  0  0
    2.7006    0.2553   -1.4595 N   0  0  0  0  0  0  0  0  0  0  0  0
    0.8172   -0.1815   -0.0812 N   0  0  0  0  0  0  0  0  0  0  0  0
    0.8526   -1.6179   -0.2733 C   0  0  0  0  0  0  0  0  0  0  0  0
   -0.5775   -2.1263   -0.2607 C   0  0  0  0  0  0  0  0  0  0  0  0
   -1.3313   -1.2210   -1.0327 O   0  0  0  0  0  0  0  0  0  0  0  0
   -1.5481   -0.0582   -0.3197 C   0  0  1  0  0  0  0  0  0  0  0  0
   -2.8201   -0.2091    0.4815 C   0  0  0  0  0  0  0  0  0  0  0  0
   -3.1030    0.9304    1.2291 O   0  0  0  0  0  0  0  0  0  0  0  0
   -0.3825    0.3684    0.5196 C   0  0  0  0  0  0  0  0  0  0  0  0
    1.8125    1.9882    1.1195 H   0  0  0  0  0  0  0  0  0  0  0  0
    3.5114    0.7946   -1.7754 H   0  0  0  0  0  0  0  0  0  0  0  0
    1.2430   -1.8289   -1.3054 H   0  0  0  0  0  0  0  0  0  0  0  0
    1.4921   -2.1250    0.4645 H   0  0  0  0  0  0  0  0  0  0  0  0
   -1.0116   -2.1282    0.7652 H   0  0  0  0  0  0  0  0  0  0  0  0
   -0.6648   -3.1484   -0.6522 H   0  0  0  0  0  0  0  0  0  0  0  0
   -1.7204    0.7506   -1.0829 H   0  0  0  0  0  0  0  0  0  0  0  0
   -2.7729   -1.1084    1.1186 H   0  0  0  0  0  0  0  0  0  0  0  0
   -3.6706   -0.3466   -0.2161 H   0  0  0  0  0  0  0  0  0  0  0  0
   -3.2396    0.7270    2.1849 H   0  0  0  0  0  0  0  0  0  0  0  0
   -0.4715    0.0522    1.5789 H   0  0  0  0  0  0  0  0  0  0  0  0
   -0.3462    1.4849    0.5448 H   0  0  0  0  0  0  0  0  0  0  0  0
  1  2  3  0
  2  3  1  0
  3  4  1  0
  4  5  2  3
  4  6  1  0
  6  7  1  0
  7  8  1  0
  8  9  1  0
  9 10  1  0
 10 11  1  0
 11 12  1  0
 10 13  1  0
 13  6  1  0
  3 14  1  0
  5 15  1  0
  7 16  1  0
  7 17  1  0
  8 18  1  0
  8 19  1  0
 10 20  1  6
 11 21  1  0
 11 22  1  0
 12 23  1  0
 13 24  1  0
 13 25  1  0
M  END
$$$$

     RDKit          3D

 25 25  0  0  0  0  0  0  0  0999 V2000
    5.2276    1.1914    1.3568 N   0  0  0  0  0  0  0  0  0  0  0  0
    4.1046    1.1395    1.0131 C   0  0  0  0  0  0  0  0  0  0  0  0
    2.7663    1.0862    0.6274 N   0  0  0  0  0  0  0  0  0  0  0  0
    2.1771   -0.1567    0.2483 C   0  0  0  0  0  0  0  0  0  0  0  0
    2.9566   -1.1741    0.1196 N   0  0  0  0  0  0  0  0  0  0  0  0
    0.7817   -0.2939    0.0148 N   0  0  0  0  0  0  0  0  0  0  0  0
    0.3488   -1.1690   -1.0469 C   0  0  0  0  0  0  0  0  0  0  0  0
   -1.1471   -1.0497   -1.2259 C   0  0  0  0  0  0  0  0  0  0  0  0
   -1.4932    0.2802   -1.2043 O   0  0  0  0  0  0  0  0  0  0  0  0
   -1.3693    0.8843    0.0270 C   0  0  1  0  0  0  0  0  0  0  0  0
   -2.6539    0.7661    0.8440 C   0  0  0  0  0  0  0  0  0  0  0  0
   -3.0118   -0.5429    1.0796 O   0  0  0  0  0  0  0  0  0  0  0  0
   -0.1859    0.4103    0.8027 C   0  0  0  0  0  0  0  0  0  0  0  0
    2.1405    1.9223    0.5948 H   0  0  0  0  0  0  0  0  0  0  0  0
    2.5669   -2.0994   -0.1556 H   0  0  0  0  0  0  0  0  0  0  0  0
    0.8177   -0.9107   -2.0322 H   0  0  0  0  0  0  0  0  0  0  0  0
    0.6242   -2.2109   -0.7683 H   0  0  0  0  0  0  0  0  0  0  0  0
   -1.4026   -1.4363   -2.2454 H   0  0  0  0  0  0  0  0  0  0  0  0
   -1.6889   -1.6719   -0.4817 H   0  0  0  0  0  0  0  0  0  0  0  0
   -1.2567    1.9908   -0.1697 H   0  0  0  0  0  0  0  0  0  0  0  0
   -2.5932    1.3850    1.7613 H   0  0  0  0  0  0  0  0  0  0  0  0
   -3.4686    1.2287    0.2259 H   0  0  0  0  0  0  0  0  0  0  0  0
   -3.9936   -0.5835    1.1618 H   0  0  0  0  0  0  0  0  0  0  0  0
    0.2871    1.2792    1.3122 H   0  0  0  0  0  0  0  0  0  0  0  0
   -0.5341   -0.2650    1.6007 H   0  0  0  0  0  0  0  0  0  0  0  0
  1  2  3  0
  2  3  1  0
  3  4  1  0
  4  5  2  3
  4  6  1  0
  6  7  1  0
  7  8  1  0
  8  9  1  0
  9 10  1  0
 10 11  1  0
 11 12  1  0
 10 13  1  0
 13  6  1  0
  3 14  1  0
  5 15  1  0
  7 16  1  0
  7 17  1  0
  8 18  1  0
  8 19  1  0
 10 20  1  6
 11 21  1  0
 11 22  1  0
 12 23  1  0
 13 24  1  0
 13 25  1  0
M  END
$$$$

     RDKit          3D

 25 25  0  0  0  0  0  0  0  0999 V2000
    4.7562    1.1066   -2.2968 N   0  0  0  0  0  0  0  0  0  0  0  0
    3.7844    0.9992   -1.6771 C   0  0  0  0  0  0  0  0  0  0  0  0
    2.6087    0.8522   -0.9049 N   0  0  0  0  0  0  0  0  0  0  0  0
    1.9184   -0.4074   -0.8874 C   0  0  0  0  0  0  0  0  0  0  0  0
    2.5903   -1.4203   -1.3283 N   0  0  0  0  0  0  0  0  0  0  0  0
    0.6007   -0.4938   -0.4150 N   0  0  0  0  0  0  0  0  0  0  0  0
    0.0071   -1.8362   -0.3426 C   0  0  0  0  0  0  0  0  0  0  0  0
   -1.2590   -1.6796    0.4811 C   0  0  0  0  0  0  0  0  0  0  0  0
   -2.0440   -0.7537   -0.2100 O   0  0  0  0  0  0  0  0  0  0  0  0
   -1.5935    0.5454   -0.0408 C   0  0  1  0  0  0  0  0  0  0  0  0
   -2.2691    1.1054    1.1894 C   0  0  0  0  0  0  0  0  0  0  0  0
   -1.9084    2.3994    1.4752 O   0  0  0  0  0  0  0  0  0  0  0  0
   -0.1122    0.6854   -0.0274 C   0  0  0  0  0  0  0  0  0  0  0  0
    2.2116    1.6313   -0.3363 H   0  0  0  0  0  0  0  0  0  0  0  0
    2.1630   -2.3816   -1.3518 H   0  0  0  0  0  0  0  0  0  0  0  0
   -0.2055   -2.2113   -1.3540 H   0  0  0  0  0  0  0  0  0  0  0  0
    0.6935   -2.4724    0.2136 H   0  0  0  0  0  0  0  0  0  0  0  0
   -0.9407   -1.2868    1.4736 H   0  0  0  0  0  0  0  0  0  0  0  0
   -1.7925   -2.6188    0.6197 H   0  0  0  0  0  0  0  0  0  0  0  0
   -2.0158    1.1292   -0.9113 H   0  0  0  0  0  0  0  0  0  0  0  0
   -2.1341    0.4952    2.0851 H   0  0  0  0  0  0  0  0  0  0  0  0
   -3.3758    1.0825    0.9655 H   0  0  0  0  0  0  0  0  0  0  0  0
   -2.1326    2.9769    0.6999 H   0  0  0  0  0  0  0  0  0  0  0  0
    0.2479    1.0510    0.9768 H   0  0  0  0  0  0  0  0  0  0  0  0
    0.2016    1.5020   -0.7370 H   0  0  0  0  0  0  0  0  0  0  0  0
  1  2  3  0
  2  3  1  0
  3  4  1  0
  4  5  2  3
  4  6  1  0
  6  7  1  0
  7  8  1  0
  8  9  1  0
  9 10  1  0
 10 11  1  0
 11 12  1  0
 10 13  1  0
 13  6  1  0
  3 14  1  0
  5 15  1  0
  7 16  1  0
  7 17  1  0
  8 18  1  0
  8 19  1  0
 10 20  1  6
 11 21  1  0
 11 22  1  0
 12 23  1  0
 13 24  1  0
 13 25  1  0
M  END
$$$$

     RDKit          3D

 25 25  0  0  0  0  0  0  0  0999 V2000
    4.8069    2.5929   -0.4819 N   0  0  0  0  0  0  0  0  0  0  0  0
    3.7049    2.2047   -0.3470 C   0  0  0  0  0  0  0  0  0  0  0  0
    2.3895    1.7443   -0.2105 N   0  0  0  0  0  0  0  0  0  0  0  0
    2.0547    0.3521   -0.3671 C   0  0  0  0  0  0  0  0  0  0  0  0
    2.9865   -0.3818   -0.8993 N   0  0  0  0  0  0  0  0  0  0  0  0
    0.8056   -0.1518    0.0337 N   0  0  0  0  0  0  0  0  0  0  0  0
    0.7161   -1.4487    0.6482 C   0  0  0  0  0  0  0  0  0  0  0  0
   -0.6642   -1.4756    1.3231 C   0  0  0  0  0  0  0  0  0  0  0  0
   -1.5868   -1.4962    0.2799 O   0  0  0  0  0  0  0  0  0  0  0  0
   -1.5008   -0.3853   -0.5137 C   0  0  1  0  0  0  0  0  0  0  0  0
   -2.8672    0.3105   -0.4764 C   0  0  0  0  0  0  0  0  0  0  0  0
   -3.1417    0.6542    0.8274 O   0  0  0  0  0  0  0  0  0  0  0  0
   -0.4169    0.5800   -0.1432 C   0  0  0  0  0  0  0  0  0  0  0  0
    1.6365    2.4475    0.0127 H   0  0  0  0  0  0  0  0  0  0  0  0
    2.8516   -1.4031   -1.0591 H   0  0  0  0  0  0  0  0  0  0  0  0
    0.7516   -2.2429   -0.1225 H   0  0  0  0  0  0  0  0  0  0  0  0
    1.5155   -1.6399    1.3876 H   0  0  0  0  0  0  0  0  0  0  0  0
   -0.8322   -0.5309    1.8828 H   0  0  0  0  0  0  0  0  0  0  0  0
   -0.7675   -2.3227    1.9942 H   0  0  0  0  0  0  0  0  0  0  0  0
   -1.3476   -0.6367   -1.6016 H   0  0  0  0  0  0  0  0  0  0  0  0
   -2.8375    1.2343   -1.0943 H   0  0  0  0  0  0  0  0  0  0  0  0
   -3.6336   -0.3861   -0.8806 H   0  0  0  0  0  0  0  0  0  0  0  0
   -3.5988   -0.0886    1.3286 H   0  0  0  0  0  0  0  0  0  0  0  0
   -0.3309    1.3046   -1.0053 H   0  0  0  0  0  0  0  0  0  0  0  0
   -0.6940    1.1653    0.7598 H   0  0  0  0  0  0  0  0  0  0  0  0
  1  2  3  0
  2  3  1  0
  3  4  1  0
  4  5  2  3
  4  6  1  0
  6  7  1  0
  7  8  1  0
  8  9  1  0
  9 10  1  0
 10 11  1  0
 11 12  1  0
 10 13  1  0
 13  6  1  0
  3 14  1  0
  5 15  1  0
  7 16  1  0
  7 17  1  0
  8 18  1  0
  8 19  1  0
 10 20  1  6
 11 21  1  0
 11 22  1  0
 12 23  1  0
 13 24  1  0
 13 25  1  0
M  END
$$$$

     RDKit          3D

 25 25  0  0  0  0  0  0  0  0999 V2000
    5.0717   -1.0981    1.2045 N   0  0  0  0  0  0  0  0  0  0  0  0
    4.0875   -0.6635    0.7818 C   0  0  0  0  0  0  0  0  0  0  0  0
    2.8962   -0.1198    0.2872 N   0  0  0  0  0  0  0  0  0  0  0  0
    1.9095   -1.0079   -0.3093 C   0  0  0  0  0  0  0  0  0  0  0  0
    2.1758   -2.0386   -0.8189 N   0  0  0  0  0  0  0  0  0  0  0  0
    0.5414   -0.5363   -0.2296 N   0  0  0  0  0  0  0  0  0  0  0  0
   -0.3355   -0.9705   -1.2921 C   0  0  0  0  0  0  0  0  0  0  0  0
   -1.6985   -0.3752   -1.1889 C   0  0  0  0  0  0  0  0  0  0  0  0
   -1.7205    0.9326   -0.7782 O   0  0  0  0  0  0  0  0  0  0  0  0
   -1.0665    1.2203    0.3800 C   0  0  1  0  0  0  0  0  0  0  0  0
   -2.1331    1.1862    1.4856 C   0  0  0  0  0  0  0  0  0  0  0  0
   -3.1090    2.1297    1.2134 O   0  0  0  0  0  0  0  0  0  0  0  0
    0.0303    0.2955    0.7999 C   0  0  0  0  0  0  0  0  0  0  0  0
    2.6508    0.8897    0.3058 H   0  0  0  0  0  0  0  0  0  0  0  0
    2.6920   -2.7722   -1.1396 H   0  0  0  0  0  0  0  0  0  0  0  0
   -0.4570   -2.0907   -1.1878 H   0  0  0  0  0  0  0  0  0  0  0  0
    0.1117   -0.7320   -2.2696 H   0  0  0  0  0  0  0  0  0  0  0  0
   -2.3497   -1.0005   -0.5509 H   0  0  0  0  0  0  0  0  0  0  0  0
   -2.1604   -0.4125   -2.2057 H   0  0  0  0  0  0  0  0  0  0  0  0
   -0.6931    2.2599    0.3213 H   0  0  0  0  0  0  0  0  0  0  0  0
   -1.6783    1.4289    2.4632 H   0  0  0  0  0  0  0  0  0  0  0  0
   -2.5664    0.1724    1.4844 H   0  0  0  0  0  0  0  0  0  0  0  0
   -2.7736    2.7190    0.4919 H   0  0  0  0  0  0  0  0  0  0  0  0
    0.8545    0.9211    1.2067 H   0  0  0  0  0  0  0  0  0  0  0  0
   -0.2795   -0.3374    1.6759 H   0  0  0  0  0  0  0  0  0  0  0  0
  1  2  3  0
  2  3  1  0
  3  4  1  0
  4  5  2  3
  4  6  1  0
  6  7  1  0
  7  8  1  0
  8  9  1  0
  9 10  1  0
 10 11  1  0
 11 12  1  0
 10 13  1  0
 13  6  1  0
  3 14  1  0
  5 15  1  0
  7 16  1  0
  7 17  1  0
  8 18  1  0
  8 19  1  0
 10 20  1  6
 11 21  1  0
 11 22  1  0
 12 23  1  0
 13 24  1  0
 13 25  1  0
M  END
$$$$
