
     RDKit          3D

 23 22  0  0  0  0  0  0  0  0999 V2000
    2.2663    1.8701   -0.3111 C   0  0  0  0  0  0  0  0  0  0  0  0
    1.3556    0.7682   -0.1924 O   0  0  0  0  0  0  0  0  0  0  0  0
    1.7831   -0.4921    0.1691 C   0  0  0  0  0  0  0  0  0  0  0  0
    3.0014   -0.6637    0.3966 O   0  0  0  0  0  0  0  0  0  0  0  0
    0.8497   -1.6145    0.2890 C   0  0  0  0  0  0  0  0  0  0  0  0
   -0.5171   -1.2487   -0.0070 N   0  0  0  0  0  0  0  0  0  0  0  0
   -1.5168   -2.2961    0.0851 C   0  0  0  0  0  0  0  0  0  0  0  0
   -0.9030    0.0675   -0.3752 C   0  0  0  0  0  0  0  0  0  0  0  0
   -0.9243    0.3753   -1.6227 N   0  0  0  0  0  0  0  0  0  0  0  0
   -1.2610    1.0374    0.5960 N   0  0  0  0  0  0  0  0  0  0  0  0
   -2.0440    2.1697    0.2560 N   0  0  0  0  0  0  0  0  0  0  0  0
    2.6065    2.2069    0.6963 H   0  0  0  0  0  0  0  0  0  0  0  0
    1.7188    2.6537   -0.8651 H   0  0  0  0  0  0  0  0  0  0  0  0
    3.1986    1.5541   -0.8427 H   0  0  0  0  0  0  0  0  0  0  0  0
    1.1376   -2.4817   -0.3431 H   0  0  0  0  0  0  0  0  0  0  0  0
    0.8605   -2.0006    1.3451 H   0  0  0  0  0  0  0  0  0  0  0  0
   -2.4169   -1.8369    0.5786 H   0  0  0  0  0  0  0  0  0  0  0  0
   -1.1506   -3.1711    0.6405 H   0  0  0  0  0  0  0  0  0  0  0  0
   -1.8165   -2.5437   -0.9601 H   0  0  0  0  0  0  0  0  0  0  0  0
   -0.6785   -0.2732   -2.3811 H   0  0  0  0  0  0  0  0  0  0  0  0
   -0.9297    0.8983    1.5871 H   0  0  0  0  0  0  0  0  0  0  0  0
   -1.6240    3.0498    0.6107 H   0  0  0  0  0  0  0  0  0  0  0  0
   -2.9956    1.9713    0.6504 H   0  0  0  0  0  0  0  0  0  0  0  0
  1  2  1  0
  2  3  1  0
  3  4  2  0
  3  5  1  0
  5  6  1  0
  6  7  1  0
  6  8  1  0
  8  9  2  3
  8 10  1  0
 10 11  1  0
  1 12  1  0
  1 13  1  0
  1 14  1  0
  5 15  1  0
  5 16  1  0
  7 17  1  0
  7 18  1  0
  7 19  1  0
  9 20  1  0
 10 21  1  0
 11 22  1  0
 11 23  1  0
M  END
$$$$

     RDKit          3D

 23 22  0  0  0  0  0  0  0  0999 V2000
    3.5406   -1.2501   -0.3239 C   0  0  0  0  0  0  0  0  0  0  0  0
    2.8064   -0.0611   -0.3001 O   0  0  0  0  0  0  0  0  0  0  0  0
    1.4527    0.0393   -0.0641 C   0  0  0  0  0  0  0  0  0  0  0  0
    0.8180   -1.0246    0.1484 O   0  0  0  0  0  0  0  0  0  0  0  0
    0.7064    1.3086   -0.0455 C   0  0  0  0  0  0  0  0  0  0  0  0
   -0.7038    1.1163    0.2276 N   0  0  0  0  0  0  0  0  0  0  0  0
   -1.5180    2.3175    0.2647 C   0  0  0  0  0  0  0  0  0  0  0  0
   -1.2932   -0.1593    0.4516 C   0  0  0  0  0  0  0  0  0  0  0  0
   -1.3951   -0.6994    1.6199 N   0  0  0  0  0  0  0  0  0  0  0  0
   -1.7974   -0.8798   -0.6666 N   0  0  0  0  0  0  0  0  0  0  0  0
   -2.7495   -1.8940   -0.5567 N   0  0  0  0  0  0  0  0  0  0  0  0
    2.9546   -2.1392    0.0092 H   0  0  0  0  0  0  0  0  0  0  0  0
    3.9404   -1.3895   -1.3544 H   0  0  0  0  0  0  0  0  0  0  0  0
    4.4400   -1.2212    0.3373 H   0  0  0  0  0  0  0  0  0  0  0  0
    1.1420    1.9805    0.7404 H   0  0  0  0  0  0  0  0  0  0  0  0
    0.7971    1.8677   -1.0065 H   0  0  0  0  0  0  0  0  0  0  0  0
   -1.2866    2.9636    1.1239 H   0  0  0  0  0  0  0  0  0  0  0  0
   -2.6079    2.0387    0.2186 H   0  0  0  0  0  0  0  0  0  0  0  0
   -1.3199    2.8531   -0.6980 H   0  0  0  0  0  0  0  0  0  0  0  0
   -1.0467   -0.2269    2.4827 H   0  0  0  0  0  0  0  0  0  0  0  0
   -1.4463   -0.6489   -1.6251 H   0  0  0  0  0  0  0  0  0  0  0  0
   -2.6782   -2.5379   -1.3587 H   0  0  0  0  0  0  0  0  0  0  0  0
   -2.7555   -2.3535    0.3753 H   0  0  0  0  0  0  0  0  0  0  0  0
  1  2  1  0
  2  3  1  0
  3  4  2  0
  3  5  1  0
  5  6  1  0
  6  7  1  0
  6  8  1  0
  8  9  2  3
  8 10  1  0
 10 11  1  0
  1 12  1  0
  1 13  1  0
  1 14  1  0
  5 15  1  0
  5 16  1  0
  7 17  1  0
  7 18  1  0
  7 19  1  0
  9 20  1  0
 10 21  1  0
 11 22  1  0
 11 23  1  0
M  END
$$$$

     RDKit          3D

 23 22  0  0  0  0  0  0  0  0999 V2000
   -4.1578   -0.2955    0.7514 C   0  0  0  0  0  0  0  0  0  0  0  0
   -2.9583   -0.6451    0.1359 O   0  0  0  0  0  0  0  0  0  0  0  0
   -1.7632    0.0515    0.2650 C   0  0  0  0  0  0  0  0  0  0  0  0
   -1.7749    1.0718    0.9927 O   0  0  0  0  0  0  0  0  0  0  0  0
   -0.5955   -0.4716   -0.4621 C   0  0  0  0  0  0  0  0  0  0  0  0
    0.6034    0.2934   -0.2670 N   0  0  0  0  0  0  0  0  0  0  0  0
    0.8004    1.6357   -0.7649 C   0  0  0  0  0  0  0  0  0  0  0  0
    1.6732   -0.3036    0.4614 C   0  0  0  0  0  0  0  0  0  0  0  0
    1.4874   -0.9051    1.5921 N   0  0  0  0  0  0  0  0  0  0  0  0
    3.0026   -0.2557   -0.0462 N   0  0  0  0  0  0  0  0  0  0  0  0
    4.0412   -0.7250    0.7560 N   0  0  0  0  0  0  0  0  0  0  0  0
   -4.9032   -0.0947   -0.0467 H   0  0  0  0  0  0  0  0  0  0  0  0
   -4.0952    0.5791    1.4239 H   0  0  0  0  0  0  0  0  0  0  0  0
   -4.5086   -1.1916    1.3340 H   0  0  0  0  0  0  0  0  0  0  0  0
   -0.4458   -1.5246   -0.1706 H   0  0  0  0  0  0  0  0  0  0  0  0
   -0.8434   -0.4463   -1.5615 H   0  0  0  0  0  0  0  0  0  0  0  0
   -0.1246    2.1586   -1.0040 H   0  0  0  0  0  0  0  0  0  0  0  0
    1.4187    1.5354   -1.6874 H   0  0  0  0  0  0  0  0  0  0  0  0
    1.4260    2.1803   -0.0338 H   0  0  0  0  0  0  0  0  0  0  0  0
    0.5030   -0.9369    1.9570 H   0  0  0  0  0  0  0  0  0  0  0  0
    3.1915    0.1301   -1.0089 H   0  0  0  0  0  0  0  0  0  0  0  0
    4.1490   -0.1185    1.6118 H   0  0  0  0  0  0  0  0  0  0  0  0
    3.8742   -1.7219    0.9979 H   0  0  0  0  0  0  0  0  0  0  0  0
  1  2  1  0
  2  3  1  0
  3  4  2  0
  3  5  1  0
  5  6  1  0
  6  7  1  0
  6  8  1  0
  8  9  2  3
  8 10  1  0
 10 11  1  0
  1 12  1  0
  1 13  1  0
  1 14  1  0
  5 15  1  0
  5 16  1  0
  7 17  1  0
  7 18  1  0
  7 19  1  0
  9 20  1  0
 10 21  1  0
 11 22  1  0
 11 23  1  0
M  END
$$$$

     RDKit          3D

 23 22  0  0  0  0  0  0  0  0999 V2000
   -3.5265    1.4273   -0.6370 C   0  0  0  0  0  0  0  0  0  0  0  0
   -2.9023    0.2860   -0.0709 O   0  0  0  0  0  0  0  0  0  0  0  0
   -1.5900   -0.0389   -0.2564 C   0  0  0  0  0  0  0  0  0  0  0  0
   -0.9219    0.7778   -1.0073 O   0  0  0  0  0  0  0  0  0  0  0  0
   -0.8629   -1.1854    0.2923 C   0  0  0  0  0  0  0  0  0  0  0  0
    0.5626   -1.0469    0.3303 N   0  0  0  0  0  0  0  0  0  0  0  0
    1.3714   -2.2031    0.6238 C   0  0  0  0  0  0  0  0  0  0  0  0
    1.1860    0.2010    0.1358 C   0  0  0  0  0  0  0  0  0  0  0  0
    0.8406    1.2332    0.8166 N   0  0  0  0  0  0  0  0  0  0  0  0
    2.2360    0.3738   -0.8067 N   0  0  0  0  0  0  0  0  0  0  0  0
    3.0794    1.5168   -0.7844 N   0  0  0  0  0  0  0  0  0  0  0  0
   -4.6244    1.3479   -0.6017 H   0  0  0  0  0  0  0  0  0  0  0  0
   -3.2159    2.2974   -0.0108 H   0  0  0  0  0  0  0  0  0  0  0  0
   -3.1854    1.6588   -1.6553 H   0  0  0  0  0  0  0  0  0  0  0  0
   -1.1724   -1.4600    1.3297 H   0  0  0  0  0  0  0  0  0  0  0  0
   -1.1221   -2.0833   -0.3406 H   0  0  0  0  0  0  0  0  0  0  0  0
    2.2606   -1.9763    1.2610 H   0  0  0  0  0  0  0  0  0  0  0  0
    1.7629   -2.5912   -0.3411 H   0  0  0  0  0  0  0  0  0  0  0  0
    0.8306   -3.0237    1.1282 H   0  0  0  0  0  0  0  0  0  0  0  0
    0.0913    1.1548    1.5245 H   0  0  0  0  0  0  0  0  0  0  0  0
    2.4682   -0.3192   -1.5718 H   0  0  0  0  0  0  0  0  0  0  0  0
    2.5806    2.3520   -0.3560 H   0  0  0  0  0  0  0  0  0  0  0  0
    3.8535    1.3012   -0.1473 H   0  0  0  0  0  0  0  0  0  0  0  0
  1  2  1  0
  2  3  1  0
  3  4  2  0
  3  5  1  0
  5  6  1  0
  6  7  1  0
  6  8  1  0
  8  9  2  3
  8 10  1  0
 10 11  1  0
  1 12  1  0
  1 13  1  0
  1 14  1  0
  5 15  1  0
  5 16  1  0
  7 17  1  0
  7 18  1  0
  7 19  1  0
  9 20  1  0
 10 21  1  0
 11 22  1  0
 11 23  1  0
M  END
$$$$

     RDKit          3D

 23 22  0  0  0  0  0  0  0  0999 V2000
    3.4034    1.6718   -0.3724 C   0  0  0  0  0  0  0  0  0  0  0  0
    2.8534    0.4161    0.0470 O   0  0  0  0  0  0  0  0  0  0  0  0
    1.4900    0.1705    0.0327 C   0  0  0  0  0  0  0  0  0  0  0  0
    0.7227    1.0816   -0.3611 O   0  0  0  0  0  0  0  0  0  0  0  0
    0.9702   -1.1575    0.4809 C   0  0  0  0  0  0  0  0  0  0  0  0
   -0.4614   -1.2259    0.3962 N   0  0  0  0  0  0  0  0  0  0  0  0
   -1.0980   -2.4639    0.8024 C   0  0  0  0  0  0  0  0  0  0  0  0
   -1.2920   -0.1796   -0.0520 C   0  0  0  0  0  0  0  0  0  0  0  0
   -1.6787   -0.1778   -1.2733 N   0  0  0  0  0  0  0  0  0  0  0  0
   -1.7055    0.8601    0.8073 N   0  0  0  0  0  0  0  0  0  0  0  0
   -2.8025    1.6974    0.5214 N   0  0  0  0  0  0  0  0  0  0  0  0
    2.7437    2.5018    0.0020 H   0  0  0  0  0  0  0  0  0  0  0  0
    4.4341    1.7466    0.0269 H   0  0  0  0  0  0  0  0  0  0  0  0
    3.3772    1.7587   -1.4810 H   0  0  0  0  0  0  0  0  0  0  0  0
    1.2669   -1.3194    1.5445 H   0  0  0  0  0  0  0  0  0  0  0  0
    1.4216   -1.9343   -0.1616 H   0  0  0  0  0  0  0  0  0  0  0  0
   -0.5419   -3.3169    0.3306 H   0  0  0  0  0  0  0  0  0  0  0  0
   -2.1728   -2.4861    0.5438 H   0  0  0  0  0  0  0  0  0  0  0  0
   -1.0063   -2.5937    1.9046 H   0  0  0  0  0  0  0  0  0  0  0  0
   -2.2890    0.5390   -1.7112 H   0  0  0  0  0  0  0  0  0  0  0  0
   -1.2094    1.0564    1.7045 H   0  0  0  0  0  0  0  0  0  0  0  0
   -3.7050    1.1732    0.6512 H   0  0  0  0  0  0  0  0  0  0  0  0
   -2.7208    2.1816   -0.3795 H   0  0  0  0  0  0  0  0  0  0  0  0
  1  2  1  0
  2  3  1  0
  3  4  2  0
  3  5  1  0
  5  6  1  0
  6  7  1  0
  6  8  1  0
  8  9  2  3
  8 10  1  0
 10 11  1  0
  1 12  1  0
  1 13  1  0
  1 14  1  0
  5 15  1  0
  5 16  1  0
  7 17  1  0
  7 18  1  0
  7 19  1  0
  9 20  1  0
 10 21  1  0
 11 22  1  0
 11 23  1  0
M  END
$$$$

     RDKit          3D

 23 22  0  0  0  0  0  0  0  0999 V2000
    3.2221   -0.8956   -0.1971 C   0  0  0  0  0  0  0  0  0  0  0  0
    1.9373   -0.2839   -0.2262 O   0  0  0  0  0  0  0  0  0  0  0  0
    1.5773    0.7214    0.6492 C   0  0  0  0  0  0  0  0  0  0  0  0
    2.4235    1.0967    1.4926 O   0  0  0  0  0  0  0  0  0  0  0  0
    0.2185    1.3698    0.6205 C   0  0  0  0  0  0  0  0  0  0  0  0
   -0.6072    0.8087   -0.4099 N   0  0  0  0  0  0  0  0  0  0  0  0
   -0.2018    1.0873   -1.7966 C   0  0  0  0  0  0  0  0  0  0  0  0
   -1.7578    0.0242   -0.1696 C   0  0  0  0  0  0  0  0  0  0  0  0
   -2.9298    0.5138   -0.3354 N   0  0  0  0  0  0  0  0  0  0  0  0
   -1.6410   -1.3166    0.2588 N   0  0  0  0  0  0  0  0  0  0  0  0
   -2.7805   -2.0806    0.6146 N   0  0  0  0  0  0  0  0  0  0  0  0
    3.9549   -0.2407    0.3577 H   0  0  0  0  0  0  0  0  0  0  0  0
    3.1968   -1.8424    0.3863 H   0  0  0  0  0  0  0  0  0  0  0  0
    3.5691   -1.0779   -1.2355 H   0  0  0  0  0  0  0  0  0  0  0  0
   -0.2393    1.3063    1.6264 H   0  0  0  0  0  0  0  0  0  0  0  0
    0.3433    2.4675    0.4211 H   0  0  0  0  0  0  0  0  0  0  0  0
    0.2057    2.0959   -1.9053 H   0  0  0  0  0  0  0  0  0  0  0  0
    0.4656    0.2909   -2.1762 H   0  0  0  0  0  0  0  0  0  0  0  0
   -1.1317    1.0424   -2.4097 H   0  0  0  0  0  0  0  0  0  0  0  0
   -3.0938    1.5105   -0.6543 H   0  0  0  0  0  0  0  0  0  0  0  0
   -0.6723   -1.7157    0.2999 H   0  0  0  0  0  0  0  0  0  0  0  0
   -3.5301   -1.8049   -0.0602 H   0  0  0  0  0  0  0  0  0  0  0  0
   -2.5286   -3.0770    0.4144 H   0  0  0  0  0  0  0  0  0  0  0  0
  1  2  1  0
  2  3  1  0
  3  4  2  0
  3  5  1  0
  5  6  1  0
  6  7  1  0
  6  8  1  0
  8  9  2  3
  8 10  1  0
 10 11  1  0
  1 12  1  0
  1 13  1  0
  1 14  1  0
  5 15  1  0
  5 16  1  0
  7 17  1  0
  7 18  1  0
  7 19  1  0
  9 20  1  0
 10 21  1  0
 11 22  1  0
 11 23  1  0
M  END
$$$$

     RDKit          3D

 23 22  0  0  0  0  0  0  0  0999 V2000
    4.1365    1.0076   -0.1762 C   0  0  0  0  0  0  0  0  0  0  0  0
    2.8158    1.1802    0.3087 O   0  0  0  0  0  0  0  0  0  0  0  0
    1.8254    0.2366    0.0388 C   0  0  0  0  0  0  0  0  0  0  0  0
    2.1770   -0.7373   -0.6386 O   0  0  0  0  0  0  0  0  0  0  0  0
    0.5043    0.5149    0.5866 C   0  0  0  0  0  0  0  0  0  0  0  0
   -0.5238   -0.4066    0.3465 N   0  0  0  0  0  0  0  0  0  0  0  0
   -0.6528   -1.7461    0.8578 C   0  0  0  0  0  0  0  0  0  0  0  0
   -1.5918   -0.0007   -0.5096 C   0  0  0  0  0  0  0  0  0  0  0  0
   -1.4291    0.8568   -1.4842 N   0  0  0  0  0  0  0  0  0  0  0  0
   -2.9177   -0.5148   -0.3506 N   0  0  0  0  0  0  0  0  0  0  0  0
   -4.0437    0.2747   -0.5700 N   0  0  0  0  0  0  0  0  0  0  0  0
    4.6009    2.0001   -0.3131 H   0  0  0  0  0  0  0  0  0  0  0  0
    4.0369    0.4635   -1.1560 H   0  0  0  0  0  0  0  0  0  0  0  0
    4.7295    0.3501    0.5123 H   0  0  0  0  0  0  0  0  0  0  0  0
    0.6421    0.6128    1.7070 H   0  0  0  0  0  0  0  0  0  0  0  0
    0.1984    1.5281    0.2741 H   0  0  0  0  0  0  0  0  0  0  0  0
   -1.5326   -1.8190    1.5572 H   0  0  0  0  0  0  0  0  0  0  0  0
   -0.9031   -2.4059    0.0023 H   0  0  0  0  0  0  0  0  0  0  0  0
    0.2093   -2.1432    1.3633 H   0  0  0  0  0  0  0  0  0  0  0  0
   -0.4714    1.2443   -1.6199 H   0  0  0  0  0  0  0  0  0  0  0  0
   -2.9855   -1.5357   -0.0544 H   0  0  0  0  0  0  0  0  0  0  0  0
   -3.9391    1.2472   -0.2102 H   0  0  0  0  0  0  0  0  0  0  0  0
   -4.8853   -0.2076   -0.2025 H   0  0  0  0  0  0  0  0  0  0  0  0
  1  2  1  0
  2  3  1  0
  3  4  2  0
  3  5  1  0
  5  6  1  0
  6  7  1  0
  6  8  1  0
  8  9  2  3
  8 10  1  0
 10 11  1  0
  1 12  1  0
  1 13  1  0
  1 14  1  0
  5 15  1  0
  5 16  1  0
  7 17  1  0
  7 18  1  0
  7 19  1  0
  9 20  1  0
 10 21  1  0
 11 22  1  0
 11 23  1  0
M  END
$$$$

     RDKit          3D

 23 22  0  0  0  0  0  0  0  0999 V2000
    3.6478    0.7543    0.5118 C   0  0  0  0  0  0  0  0  0  0  0  0
    2.8127   -0.0144   -0.3271 O   0  0  0  0  0  0  0  0  0  0  0  0
    1.4424   -0.1078   -0.1727 C   0  0  0  0  0  0  0  0  0  0  0  0
    0.9286    0.5355    0.7744 O   0  0  0  0  0  0  0  0  0  0  0  0
    0.5455   -0.9012   -1.0316 C   0  0  0  0  0  0  0  0  0  0  0  0
   -0.8281   -0.8277   -0.6579 N   0  0  0  0  0  0  0  0  0  0  0  0
   -1.7770   -1.5948   -1.4714 C   0  0  0  0  0  0  0  0  0  0  0  0
   -1.3510   -0.0869    0.4185 C   0  0  0  0  0  0  0  0  0  0  0  0
   -1.6221   -0.5972    1.5722 N   0  0  0  0  0  0  0  0  0  0  0  0
   -1.6091    1.3037    0.2660 N   0  0  0  0  0  0  0  0  0  0  0  0
   -1.7308    2.0985    1.4103 N   0  0  0  0  0  0  0  0  0  0  0  0
    3.4459    0.5411    1.5878 H   0  0  0  0  0  0  0  0  0  0  0  0
    3.5981    1.8406    0.2940 H   0  0  0  0  0  0  0  0  0  0  0  0
    4.6999    0.4350    0.3233 H   0  0  0  0  0  0  0  0  0  0  0  0
    0.6130   -0.5941   -2.1152 H   0  0  0  0  0  0  0  0  0  0  0  0
    0.8371   -1.9890   -1.0034 H   0  0  0  0  0  0  0  0  0  0  0  0
   -1.2896   -2.4089   -2.0229 H   0  0  0  0  0  0  0  0  0  0  0  0
   -2.5650   -2.0613   -0.8249 H   0  0  0  0  0  0  0  0  0  0  0  0
   -2.2044   -0.8846   -2.1963 H   0  0  0  0  0  0  0  0  0  0  0  0
   -1.4731   -1.6071    1.7977 H   0  0  0  0  0  0  0  0  0  0  0  0
   -1.7131    1.7659   -0.6562 H   0  0  0  0  0  0  0  0  0  0  0  0
   -2.4562    2.8632    1.2619 H   0  0  0  0  0  0  0  0  0  0  0  0
   -1.9515    1.5372    2.2617 H   0  0  0  0  0  0  0  0  0  0  0  0
  1  2  1  0
  2  3  1  0
  3  4  2  0
  3  5  1  0
  5  6  1  0
  6  7  1  0
  6  8  1  0
  8  9  2  3
  8 10  1  0
 10 11  1  0
  1 12  1  0
  1 13  1  0
  1 14  1  0
  5 15  1  0
  5 16  1  0
  7 17  1  0
  7 18  1  0
  7 19  1  0
  9 20  1  0
 10 21  1  0
 11 22  1  0
 11 23  1  0
M  END
$$$$
