
     RDKit          3D

 31 32  0  0  0  0  0  0  0  0999 V2000
    3.3857   -0.1857   -0.6616 N   0  0  0  0  0  0  0  0  0  0  0  0
    2.7947    0.0967    0.4385 C   0  0  0  0  0  0  0  0  0  0  0  0
    3.5505    0.4221    1.5858 N   0  0  0  0  0  0  0  0  0  0  0  0
    1.3854    0.0860    0.5162 N   0  0  0  0  0  0  0  0  0  0  0  0
    0.4817    1.2181    0.4600 C   0  0  0  0  0  0  0  0  0  0  0  0
   -0.8296    0.6788   -0.0213 C   0  0  2  0  0  0  0  0  0  0  0  0
   -1.4942    1.4293   -1.1174 C   0  0  0  0  0  0  0  0  0  0  0  0
   -1.7323    2.7405   -0.6456 O   0  0  0  0  0  0  0  0  0  0  0  0
   -1.8255    0.3257    1.0799 C   0  0  0  0  0  0  0  0  0  0  0  0
   -1.9731   -1.0295    0.3745 C   0  0  0  0  0  0  0  0  0  0  0  0
   -0.6102   -0.7846   -0.2126 C   0  0  1  0  0  0  0  0  0  0  0  0
   -0.4100   -1.2624   -1.6188 C   0  0  0  0  0  0  0  0  0  0  0  0
   -0.2233   -2.6437   -1.5862 O   0  0  0  0  0  0  0  0  0  0  0  0
    0.5573   -1.0993    0.6716 C   0  0  0  0  0  0  0  0  0  0  0  0
    2.8916   -0.4307   -1.5320 H   0  0  0  0  0  0  0  0  0  0  0  0
    3.7306    1.4300    1.7917 H   0  0  0  0  0  0  0  0  0  0  0  0
    3.9451   -0.2708    2.2472 H   0  0  0  0  0  0  0  0  0  0  0  0
    0.8527    1.9356   -0.3088 H   0  0  0  0  0  0  0  0  0  0  0  0
    0.4100    1.7422    1.4397 H   0  0  0  0  0  0  0  0  0  0  0  0
   -2.4691    1.0029   -1.3417 H   0  0  0  0  0  0  0  0  0  0  0  0
   -0.8973    1.5311   -2.0308 H   0  0  0  0  0  0  0  0  0  0  0  0
   -2.6575    2.8552   -0.3493 H   0  0  0  0  0  0  0  0  0  0  0  0
   -2.7807    0.8663    1.0218 H   0  0  0  0  0  0  0  0  0  0  0  0
   -1.3792    0.2518    2.0909 H   0  0  0  0  0  0  0  0  0  0  0  0
   -2.7425   -0.9941   -0.4057 H   0  0  0  0  0  0  0  0  0  0  0  0
   -2.0351   -1.8797    1.0657 H   0  0  0  0  0  0  0  0  0  0  0  0
    0.5360   -0.8257   -2.0096 H   0  0  0  0  0  0  0  0  0  0  0  0
   -1.2446   -1.0292   -2.2902 H   0  0  0  0  0  0  0  0  0  0  0  0
   -0.5615   -3.0078   -0.7315 H   0  0  0  0  0  0  0  0  0  0  0  0
    0.2836   -1.1509    1.7424 H   0  0  0  0  0  0  0  0  0  0  0  0
    1.0610   -2.0181    0.3370 H   0  0  0  0  0  0  0  0  0  0  0  0
  1  2  2  3
  2  3  1  0
  2  4  1  0
  4  5  1  0
  5  6  1  0
  6  7  1  6
  7  8  1  0
  6  9  1  0
  9 10  1  0
 10 11  1  0
 11 12  1  6
 12 13  1  0
 11 14  1  0
 14  4  1  0
 11  6  1  0
  1 15  1  0
  3 16  1  0
  3 17  1  0
  5 18  1  0
  5 19  1  0
  7 20  1  0
  7 21  1  0
  8 22  1  0
  9 23  1  0
  9 24  1  0
 10 25  1  0
 10 26  1  0
 12 27  1  0
 12 28  1  0
 13 29  1  0
 14 30  1  0
 14 31  1  0
M  END
$$$$

     RDKit          3D

 31 32  0  0  0  0  0  0  0  0999 V2000
    3.3158   -0.1641   -0.4994 N   0  0  0  0  0  0  0  0  0  0  0  0
    2.5005    0.8238   -0.7752 C   0  0  0  0  0  0  0  0  0  0  0  0
    3.1016    2.0255   -1.2027 N   0  0  0  0  0  0  0  0  0  0  0  0
    1.1061    0.6549   -0.6395 N   0  0  0  0  0  0  0  0  0  0  0  0
    0.2985   -0.2811   -1.3797 C   0  0  0  0  0  0  0  0  0  0  0  0
   -0.7069   -0.7177   -0.3439 C   0  0  2  0  0  0  0  0  0  0  0  0
   -0.6829   -2.1700    0.0094 C   0  0  0  0  0  0  0  0  0  0  0  0
   -0.9422   -2.9161   -1.1410 O   0  0  0  0  0  0  0  0  0  0  0  0
   -2.0838   -0.2449   -0.7056 C   0  0  0  0  0  0  0  0  0  0  0  0
   -2.1395    0.4606    0.6442 C   0  0  0  0  0  0  0  0  0  0  0  0
   -0.6628    0.2598    0.7722 C   0  0  1  0  0  0  0  0  0  0  0  0
   -0.2192   -0.2468    2.1149 C   0  0  0  0  0  0  0  0  0  0  0  0
   -0.2531    0.8293    3.0043 O   0  0  0  0  0  0  0  0  0  0  0  0
    0.2101    1.3593    0.2420 C   0  0  0  0  0  0  0  0  0  0  0  0
    2.9309   -1.0588   -0.1848 H   0  0  0  0  0  0  0  0  0  0  0  0
    3.2623    2.7845   -0.5229 H   0  0  0  0  0  0  0  0  0  0  0  0
    3.3756    2.1375   -2.1882 H   0  0  0  0  0  0  0  0  0  0  0  0
   -0.1869    0.2974   -2.2053 H   0  0  0  0  0  0  0  0  0  0  0  0
    0.8551   -1.1197   -1.8070 H   0  0  0  0  0  0  0  0  0  0  0  0
    0.2934   -2.5032    0.4165 H   0  0  0  0  0  0  0  0  0  0  0  0
   -1.5257   -2.3628    0.7055 H   0  0  0  0  0  0  0  0  0  0  0  0
   -1.0530   -2.3222   -1.9436 H   0  0  0  0  0  0  0  0  0  0  0  0
   -2.8199   -1.0686   -0.8125 H   0  0  0  0  0  0  0  0  0  0  0  0
   -2.1216    0.5229   -1.5036 H   0  0  0  0  0  0  0  0  0  0  0  0
   -2.4885    1.5195    0.5877 H   0  0  0  0  0  0  0  0  0  0  0  0
   -2.6890   -0.1761    1.3732 H   0  0  0  0  0  0  0  0  0  0  0  0
    0.8640   -0.5226    2.0099 H   0  0  0  0  0  0  0  0  0  0  0  0
   -0.7754   -1.1132    2.4647 H   0  0  0  0  0  0  0  0  0  0  0  0
   -1.0658    1.3541    2.7964 H   0  0  0  0  0  0  0  0  0  0  0  0
   -0.4531    2.0514   -0.3345 H   0  0  0  0  0  0  0  0  0  0  0  0
    0.7556    1.9075    1.0485 H   0  0  0  0  0  0  0  0  0  0  0  0
  1  2  2  3
  2  3  1  0
  2  4  1  0
  4  5  1  0
  5  6  1  0
  6  7  1  1
  7  8  1  0
  6  9  1  0
  9 10  1  0
 10 11  1  0
 11 12  1  1
 12 13  1  0
 11 14  1  0
 14  4  1  0
 11  6  1  0
  1 15  1  0
  3 16  1  0
  3 17  1  0
  5 18  1  0
  5 19  1  0
  7 20  1  0
  7 21  1  0
  8 22  1  0
  9 23  1  0
  9 24  1  0
 10 25  1  0
 10 26  1  0
 12 27  1  0
 12 28  1  0
 13 29  1  0
 14 30  1  0
 14 31  1  0
M  END
$$$$

     RDKit          3D

 31 32  0  0  0  0  0  0  0  0999 V2000
    3.7193   -0.6724   -0.7329 N   0  0  0  0  0  0  0  0  0  0  0  0
    2.9440    0.0947   -0.0697 C   0  0  0  0  0  0  0  0  0  0  0  0
    3.4722    1.0472    0.8196 N   0  0  0  0  0  0  0  0  0  0  0  0
    1.5474   -0.0104   -0.2271 N   0  0  0  0  0  0  0  0  0  0  0  0
    0.7893   -1.1794    0.1777 C   0  0  0  0  0  0  0  0  0  0  0  0
   -0.6595   -0.8121    0.1044 C   0  0  2  0  0  0  0  0  0  0  0  0
   -1.3972   -1.1695    1.3657 C   0  0  0  0  0  0  0  0  0  0  0  0
   -1.2829   -2.5474    1.5448 O   0  0  0  0  0  0  0  0  0  0  0  0
   -1.3852   -1.2454   -1.1407 C   0  0  0  0  0  0  0  0  0  0  0  0
   -1.6039    0.2010   -1.5153 C   0  0  0  0  0  0  0  0  0  0  0  0
   -0.7337    0.5989   -0.3484 C   0  0  1  0  0  0  0  0  0  0  0  0
   -1.4109    1.5831    0.5507 C   0  0  0  0  0  0  0  0  0  0  0  0
   -1.3693    2.8405   -0.0621 O   0  0  0  0  0  0  0  0  0  0  0  0
    0.6621    0.9849   -0.7951 C   0  0  0  0  0  0  0  0  0  0  0  0
    3.4170   -1.3939   -1.4023 H   0  0  0  0  0  0  0  0  0  0  0  0
    4.1152    1.7954    0.4797 H   0  0  0  0  0  0  0  0  0  0  0  0
    3.2596    1.0656    1.8520 H   0  0  0  0  0  0  0  0  0  0  0  0
    1.0614   -1.4368    1.2096 H   0  0  0  0  0  0  0  0  0  0  0  0
    1.0029   -2.0326   -0.5104 H   0  0  0  0  0  0  0  0  0  0  0  0
   -0.9350   -0.6912    2.2538 H   0  0  0  0  0  0  0  0  0  0  0  0
   -2.4535   -0.8493    1.3547 H   0  0  0  0  0  0  0  0  0  0  0  0
   -2.1732   -2.9958    1.5494 H   0  0  0  0  0  0  0  0  0  0  0  0
   -2.3469   -1.7372   -0.9078 H   0  0  0  0  0  0  0  0  0  0  0  0
   -0.7111   -1.8173   -1.8064 H   0  0  0  0  0  0  0  0  0  0  0  0
   -2.6462    0.5537   -1.4536 H   0  0  0  0  0  0  0  0  0  0  0  0
   -1.1630    0.4621   -2.5086 H   0  0  0  0  0  0  0  0  0  0  0  0
   -0.9485    1.6851    1.5352 H   0  0  0  0  0  0  0  0  0  0  0  0
   -2.4707    1.2902    0.6460 H   0  0  0  0  0  0  0  0  0  0  0  0
   -1.9526    3.4415    0.4495 H   0  0  0  0  0  0  0  0  0  0  0  0
    0.7309    0.9297   -1.9103 H   0  0  0  0  0  0  0  0  0  0  0  0
    0.9220    2.0171   -0.5020 H   0  0  0  0  0  0  0  0  0  0  0  0
  1  2  2  3
  2  3  1  0
  2  4  1  0
  4  5  1  0
  5  6  1  0
  6  7  1  1
  7  8  1  0
  6  9  1  0
  9 10  1  0
 10 11  1  0
 11 12  1  1
 12 13  1  0
 11 14  1  0
 14  4  1  0
 11  6  1  0
  1 15  1  0
  3 16  1  0
  3 17  1  0
  5 18  1  0
  5 19  1  0
  7 20  1  0
  7 21  1  0
  8 22  1  0
  9 23  1  0
  9 24  1  0
 10 25  1  0
 10 26  1  0
 12 27  1  0
 12 28  1  0
 13 29  1  0
 14 30  1  0
 14 31  1  0
M  END
$$$$

     RDKit          3D

 31 32  0  0  0  0  0  0  0  0999 V2000
    3.3199   -0.9643   -0.8686 N   0  0  0  0  0  0  0  0  0  0  0  0
    2.8476   -0.2300    0.0714 C   0  0  0  0  0  0  0  0  0  0  0  0
    3.7329    0.6323    0.7683 N   0  0  0  0  0  0  0  0  0  0  0  0
    1.4680   -0.2965    0.3880 N   0  0  0  0  0  0  0  0  0  0  0  0
    0.7068    0.8186    0.9080 C   0  0  0  0  0  0  0  0  0  0  0  0
   -0.6849    0.5912    0.3555 C   0  0  2  0  0  0  0  0  0  0  0  0
   -1.2794    1.8105   -0.2227 C   0  0  0  0  0  0  0  0  0  0  0  0
   -2.5305    1.7059   -0.7446 O   0  0  0  0  0  0  0  0  0  0  0  0
   -1.5753    0.0491    1.4801 C   0  0  0  0  0  0  0  0  0  0  0  0
   -1.9348   -1.0805    0.5361 C   0  0  0  0  0  0  0  0  0  0  0  0
   -0.7080   -0.7004   -0.2665 C   0  0  1  0  0  0  0  0  0  0  0  0
   -0.8703   -0.9601   -1.6937 C   0  0  0  0  0  0  0  0  0  0  0  0
   -2.0825   -0.4583   -2.1702 O   0  0  0  0  0  0  0  0  0  0  0  0
    0.5452   -1.3999    0.2824 C   0  0  0  0  0  0  0  0  0  0  0  0
    4.3301   -0.9214   -1.1071 H   0  0  0  0  0  0  0  0  0  0  0  0
    4.1078    0.3224    1.7125 H   0  0  0  0  0  0  0  0  0  0  0  0
    4.0295    1.5585    0.3890 H   0  0  0  0  0  0  0  0  0  0  0  0
    0.7493    0.8147    2.0023 H   0  0  0  0  0  0  0  0  0  0  0  0
    1.1387    1.7803    0.5339 H   0  0  0  0  0  0  0  0  0  0  0  0
   -0.5982    2.1650   -1.0535 H   0  0  0  0  0  0  0  0  0  0  0  0
   -1.2770    2.6471    0.5095 H   0  0  0  0  0  0  0  0  0  0  0  0
   -2.7156    2.4259   -1.3744 H   0  0  0  0  0  0  0  0  0  0  0  0
   -1.0070   -0.3558    2.3426 H   0  0  0  0  0  0  0  0  0  0  0  0
   -2.4141    0.7139    1.7502 H   0  0  0  0  0  0  0  0  0  0  0  0
   -2.8699   -0.8168   -0.0185 H   0  0  0  0  0  0  0  0  0  0  0  0
   -1.9068   -2.0868    0.9601 H   0  0  0  0  0  0  0  0  0  0  0  0
   -0.9133   -2.0636   -1.8839 H   0  0  0  0  0  0  0  0  0  0  0  0
   -0.0848   -0.5770   -2.3655 H   0  0  0  0  0  0  0  0  0  0  0  0
   -2.7884   -1.1364   -2.0315 H   0  0  0  0  0  0  0  0  0  0  0  0
    0.9334   -2.1205   -0.4544 H   0  0  0  0  0  0  0  0  0  0  0  0
    0.3316   -1.8669    1.2653 H   0  0  0  0  0  0  0  0  0  0  0  0
  1  2  2  3
  2  3  1  0
  2  4  1  0
  4  5  1  0
  5  6  1  0
  6  7  1  6
  7  8  1  0
  6  9  1  0
  9 10  1  0
 10 11  1  0
 11 12  1  6
 12 13  1  0
 11 14  1  0
 14  4  1  0
 11  6  1  0
  1 15  1  0
  3 16  1  0
  3 17  1  0
  5 18  1  0
  5 19  1  0
  7 20  1  0
  7 21  1  0
  8 22  1  0
  9 23  1  0
  9 24  1  0
 10 25  1  0
 10 26  1  0
 12 27  1  0
 12 28  1  0
 13 29  1  0
 14 30  1  0
 14 31  1  0
M  END
$$$$

     RDKit          3D

 31 32  0  0  0  0  0  0  0  0999 V2000
    3.5939   -1.0794   -0.9004 N   0  0  0  0  0  0  0  0  0  0  0  0
    2.8019   -0.4635   -0.1183 C   0  0  0  0  0  0  0  0  0  0  0  0
    3.3237    0.0284    1.1149 N   0  0  0  0  0  0  0  0  0  0  0  0
    1.4459   -0.2891   -0.4932 N   0  0  0  0  0  0  0  0  0  0  0  0
    0.4612   -1.3476   -0.4982 C   0  0  0  0  0  0  0  0  0  0  0  0
   -0.8170   -0.6172   -0.2205 C   0  0  2  0  0  0  0  0  0  0  0  0
   -1.6514   -1.1903    0.8773 C   0  0  0  0  0  0  0  0  0  0  0  0
   -0.9145   -1.1782    2.0629 O   0  0  0  0  0  0  0  0  0  0  0  0
   -1.6507   -0.4266   -1.4954 C   0  0  0  0  0  0  0  0  0  0  0  0
   -1.7593    1.0479   -1.0882 C   0  0  0  0  0  0  0  0  0  0  0  0
   -0.5463    0.8259   -0.2338 C   0  0  1  0  0  0  0  0  0  0  0  0
   -0.5996    1.6045    1.0314 C   0  0  0  0  0  0  0  0  0  0  0  0
   -1.8432    1.5577    1.6459 O   0  0  0  0  0  0  0  0  0  0  0  0
    0.7842    0.9350   -0.9332 C   0  0  0  0  0  0  0  0  0  0  0  0
    3.3521   -1.4864   -1.8206 H   0  0  0  0  0  0  0  0  0  0  0  0
    3.6676   -0.5722    1.8829 H   0  0  0  0  0  0  0  0  0  0  0  0
    3.3562    1.0743    1.2407 H   0  0  0  0  0  0  0  0  0  0  0  0
    0.4725   -1.8519   -1.4801 H   0  0  0  0  0  0  0  0  0  0  0  0
    0.6583   -2.0997    0.2883 H   0  0  0  0  0  0  0  0  0  0  0  0
   -2.0008   -2.2145    0.6149 H   0  0  0  0  0  0  0  0  0  0  0  0
   -2.5515   -0.5831    1.0370 H   0  0  0  0  0  0  0  0  0  0  0  0
   -0.9482   -2.0613    2.5203 H   0  0  0  0  0  0  0  0  0  0  0  0
   -2.5836   -0.9863   -1.4625 H   0  0  0  0  0  0  0  0  0  0  0  0
   -1.0544   -0.5618   -2.4220 H   0  0  0  0  0  0  0  0  0  0  0  0
   -1.6778    1.7601   -1.9072 H   0  0  0  0  0  0  0  0  0  0  0  0
   -2.6590    1.1488   -0.4331 H   0  0  0  0  0  0  0  0  0  0  0  0
    0.2146    1.3647    1.7425 H   0  0  0  0  0  0  0  0  0  0  0  0
   -0.4388    2.6866    0.7557 H   0  0  0  0  0  0  0  0  0  0  0  0
   -2.4430    2.2950    1.3700 H   0  0  0  0  0  0  0  0  0  0  0  0
    1.3336    1.8290   -0.6332 H   0  0  0  0  0  0  0  0  0  0  0  0
    0.6734    0.8512   -2.0447 H   0  0  0  0  0  0  0  0  0  0  0  0
  1  2  2  3
  2  3  1  0
  2  4  1  0
  4  5  1  0
  5  6  1  0
  6  7  1  1
  7  8  1  0
  6  9  1  0
  9 10  1  0
 10 11  1  0
 11 12  1  1
 12 13  1  0
 11 14  1  0
 14  4  1  0
 11  6  1  0
  1 15  1  0
  3 16  1  0
  3 17  1  0
  5 18  1  0
  5 19  1  0
  7 20  1  0
  7 21  1  0
  8 22  1  0
  9 23  1  0
  9 24  1  0
 10 25  1  0
 10 26  1  0
 12 27  1  0
 12 28  1  0
 13 29  1  0
 14 30  1  0
 14 31  1  0
M  END
$$$$

     RDKit          3D

 31 32  0  0  0  0  0  0  0  0999 V2000
    3.4483   -0.5284   -0.0521 N   0  0  0  0  0  0  0  0  0  0  0  0
    2.7266    0.3676    0.5619 C   0  0  0  0  0  0  0  0  0  0  0  0
    3.3795    1.4961    1.1291 N   0  0  0  0  0  0  0  0  0  0  0  0
    1.3208    0.2550    0.6821 N   0  0  0  0  0  0  0  0  0  0  0  0
    0.3391    1.3017    0.4125 C   0  0  0  0  0  0  0  0  0  0  0  0
   -0.6897    0.5076   -0.3968 C   0  0  2  0  0  0  0  0  0  0  0  0
   -0.3224    0.4819   -1.8361 C   0  0  0  0  0  0  0  0  0  0  0  0
   -0.2721    1.7688   -2.3307 O   0  0  0  0  0  0  0  0  0  0  0  0
   -2.1088    0.7819   -0.0412 C   0  0  0  0  0  0  0  0  0  0  0  0
   -1.9392   -0.2246    1.1075 C   0  0  0  0  0  0  0  0  0  0  0  0
   -0.7602   -0.7751    0.3366 C   0  0  1  0  0  0  0  0  0  0  0  0
   -1.1185   -2.0082   -0.4265 C   0  0  0  0  0  0  0  0  0  0  0  0
   -2.3570   -1.9416   -1.0269 O   0  0  0  0  0  0  0  0  0  0  0  0
    0.5219   -0.8946    1.0914 C   0  0  0  0  0  0  0  0  0  0  0  0
    2.9890   -1.3642   -0.4753 H   0  0  0  0  0  0  0  0  0  0  0  0
    4.0371    2.0457    0.5287 H   0  0  0  0  0  0  0  0  0  0  0  0
    3.2030    1.7637    2.1190 H   0  0  0  0  0  0  0  0  0  0  0  0
    0.7593    2.1387   -0.1600 H   0  0  0  0  0  0  0  0  0  0  0  0
   -0.1082    1.6263    1.3838 H   0  0  0  0  0  0  0  0  0  0  0  0
    0.7225    0.0671   -1.9081 H   0  0  0  0  0  0  0  0  0  0  0  0
   -0.9830   -0.1877   -2.3980 H   0  0  0  0  0  0  0  0  0  0  0  0
   -0.6702    2.3912   -1.6879 H   0  0  0  0  0  0  0  0  0  0  0  0
   -2.3513    1.8065    0.3089 H   0  0  0  0  0  0  0  0  0  0  0  0
   -2.7894    0.4054   -0.8340 H   0  0  0  0  0  0  0  0  0  0  0  0
   -2.7742   -0.9326    1.1774 H   0  0  0  0  0  0  0  0  0  0  0  0
   -1.6843    0.2986    2.0342 H   0  0  0  0  0  0  0  0  0  0  0  0
   -0.3127   -2.2700   -1.1294 H   0  0  0  0  0  0  0  0  0  0  0  0
   -1.1655   -2.8509    0.3136 H   0  0  0  0  0  0  0  0  0  0  0  0
   -2.4944   -2.8325   -1.4827 H   0  0  0  0  0  0  0  0  0  0  0  0
    0.3836   -0.8797    2.1929 H   0  0  0  0  0  0  0  0  0  0  0  0
    1.0705   -1.8139    0.8061 H   0  0  0  0  0  0  0  0  0  0  0  0
  1  2  2  3
  2  3  1  0
  2  4  1  0
  4  5  1  0
  5  6  1  0
  6  7  1  6
  7  8  1  0
  6  9  1  0
  9 10  1  0
 10 11  1  0
 11 12  1  6
 12 13  1  0
 11 14  1  0
 14  4  1  0
 11  6  1  0
  1 15  1  0
  3 16  1  0
  3 17  1  0
  5 18  1  0
  5 19  1  0
  7 20  1  0
  7 21  1  0
  8 22  1  0
  9 23  1  0
  9 24  1  0
 10 25  1  0
 10 26  1  0
 12 27  1  0
 12 28  1  0
 13 29  1  0
 14 30  1  0
 14 31  1  0
M  END
$$$$

     RDKit          3D

 31 32  0  0  0  0  0  0  0  0999 V2000
    3.3516   -1.5388   -0.2143 N   0  0  0  0  0  0  0  0  0  0  0  0
    2.8283   -0.3719   -0.1033 C   0  0  0  0  0  0  0  0  0  0  0  0
    3.6801    0.7302    0.1663 N   0  0  0  0  0  0  0  0  0  0  0  0
    1.4334   -0.1593   -0.2423 N   0  0  0  0  0  0  0  0  0  0  0  0
    0.5155   -1.0430   -0.9683 C   0  0  0  0  0  0  0  0  0  0  0  0
   -0.8370   -0.7338   -0.3664 C   0  0  2  0  0  0  0  0  0  0  0  0
   -1.2065   -1.7300    0.6620 C   0  0  0  0  0  0  0  0  0  0  0  0
   -2.4252   -1.5297    1.2670 O   0  0  0  0  0  0  0  0  0  0  0  0
   -1.8221   -0.3861   -1.4209 C   0  0  0  0  0  0  0  0  0  0  0  0
   -1.1566    0.9965   -1.4478 C   0  0  0  0  0  0  0  0  0  0  0  0
   -0.7401    0.6894   -0.0049 C   0  0  1  0  0  0  0  0  0  0  0  0
   -1.7578    1.2602    0.9350 C   0  0  0  0  0  0  0  0  0  0  0  0
   -1.4498    2.6273    1.1211 O   0  0  0  0  0  0  0  0  0  0  0  0
    0.6870    0.9599    0.3066 C   0  0  0  0  0  0  0  0  0  0  0  0
    4.3626   -1.7342   -0.1198 H   0  0  0  0  0  0  0  0  0  0  0  0
    3.6851    1.5157   -0.5160 H   0  0  0  0  0  0  0  0  0  0  0  0
    4.2696    0.7346    1.0186 H   0  0  0  0  0  0  0  0  0  0  0  0
    0.8230   -2.0961   -0.8055 H   0  0  0  0  0  0  0  0  0  0  0  0
    0.5490   -0.8598   -2.0563 H   0  0  0  0  0  0  0  0  0  0  0  0
   -0.4004   -1.7701    1.4231 H   0  0  0  0  0  0  0  0  0  0  0  0
   -1.2302   -2.7355    0.1874 H   0  0  0  0  0  0  0  0  0  0  0  0
   -2.6987   -2.3831    1.6881 H   0  0  0  0  0  0  0  0  0  0  0  0
   -2.8745   -0.3001   -1.1264 H   0  0  0  0  0  0  0  0  0  0  0  0
   -1.6809   -0.8658   -2.4198 H   0  0  0  0  0  0  0  0  0  0  0  0
   -1.8808    1.8109   -1.5458 H   0  0  0  0  0  0  0  0  0  0  0  0
   -0.2779    1.0463   -2.1188 H   0  0  0  0  0  0  0  0  0  0  0  0
   -1.6232    0.7856    1.9284 H   0  0  0  0  0  0  0  0  0  0  0  0
   -2.7810    1.2256    0.5771 H   0  0  0  0  0  0  0  0  0  0  0  0
   -1.1355    2.9341    0.2138 H   0  0  0  0  0  0  0  0  0  0  0  0
    0.8013    1.0173    1.4082 H   0  0  0  0  0  0  0  0  0  0  0  0
    0.9916    1.9034   -0.1908 H   0  0  0  0  0  0  0  0  0  0  0  0
  1  2  2  3
  2  3  1  0
  2  4  1  0
  4  5  1  0
  5  6  1  0
  6  7  1  1
  7  8  1  0
  6  9  1  0
  9 10  1  0
 10 11  1  0
 11 12  1  1
 12 13  1  0
 11 14  1  0
 14  4  1  0
 11  6  1  0
  1 15  1  0
  3 16  1  0
  3 17  1  0
  5 18  1  0
  5 19  1  0
  7 20  1  0
  7 21  1  0
  8 22  1  0
  9 23  1  0
  9 24  1  0
 10 25  1  0
 10 26  1  0
 12 27  1  0
 12 28  1  0
 13 29  1  0
 14 30  1  0
 14 31  1  0
M  END
$$$$

     RDKit          3D

 31 32  0  0  0  0  0  0  0  0999 V2000
    3.1370    1.3657    0.7441 N   0  0  0  0  0  0  0  0  0  0  0  0
    2.8184    0.3933   -0.0303 C   0  0  0  0  0  0  0  0  0  0  0  0
    3.8023   -0.4281   -0.6092 N   0  0  0  0  0  0  0  0  0  0  0  0
    1.4360    0.1693   -0.2874 N   0  0  0  0  0  0  0  0  0  0  0  0
    0.7279   -1.0859   -0.4016 C   0  0  0  0  0  0  0  0  0  0  0  0
   -0.6913   -0.7767    0.0389 C   0  0  2  0  0  0  0  0  0  0  0  0
   -1.0007   -1.3904    1.3380 C   0  0  0  0  0  0  0  0  0  0  0  0
   -0.1297   -0.9084    2.3161 O   0  0  0  0  0  0  0  0  0  0  0  0
   -1.7249   -1.1902   -1.0152 C   0  0  0  0  0  0  0  0  0  0  0  0
   -1.3974    0.1539   -1.6773 C   0  0  0  0  0  0  0  0  0  0  0  0
   -0.8940    0.5996   -0.2987 C   0  0  1  0  0  0  0  0  0  0  0  0
   -1.8538    1.4982    0.3455 C   0  0  0  0  0  0  0  0  0  0  0  0
   -1.6982    1.7039    1.6937 O   0  0  0  0  0  0  0  0  0  0  0  0
    0.4822    1.2207   -0.4833 C   0  0  0  0  0  0  0  0  0  0  0  0
    2.4353    1.9887    1.1860 H   0  0  0  0  0  0  0  0  0  0  0  0
    4.7398   -0.0592   -0.7931 H   0  0  0  0  0  0  0  0  0  0  0  0
    3.5514   -1.4230   -0.8463 H   0  0  0  0  0  0  0  0  0  0  0  0
    0.7324   -1.3730   -1.4767 H   0  0  0  0  0  0  0  0  0  0  0  0
    1.2003   -1.8568    0.2202 H   0  0  0  0  0  0  0  0  0  0  0  0
   -2.0301   -1.3486    1.6780 H   0  0  0  0  0  0  0  0  0  0  0  0
   -0.7530   -2.4916    1.2463 H   0  0  0  0  0  0  0  0  0  0  0  0
    0.2664   -1.6300    2.8657 H   0  0  0  0  0  0  0  0  0  0  0  0
   -2.7459   -1.2237   -0.5769 H   0  0  0  0  0  0  0  0  0  0  0  0
   -1.3871   -2.0657   -1.5608 H   0  0  0  0  0  0  0  0  0  0  0  0
   -2.2900    0.6796   -2.0295 H   0  0  0  0  0  0  0  0  0  0  0  0
   -0.6079    0.0301   -2.4302 H   0  0  0  0  0  0  0  0  0  0  0  0
   -1.8184    2.4957   -0.1431 H   0  0  0  0  0  0  0  0  0  0  0  0
   -2.9109    1.1390    0.1853 H   0  0  0  0  0  0  0  0  0  0  0  0
   -2.5593    2.1119    2.0249 H   0  0  0  0  0  0  0  0  0  0  0  0
    0.5562    1.6819   -1.5053 H   0  0  0  0  0  0  0  0  0  0  0  0
    0.6068    2.0199    0.2821 H   0  0  0  0  0  0  0  0  0  0  0  0
  1  2  2  3
  2  3  1  0
  2  4  1  0
  4  5  1  0
  5  6  1  0
  6  7  1  1
  7  8  1  0
  6  9  1  0
  9 10  1  0
 10 11  1  0
 11 12  1  1
 12 13  1  0
 11 14  1  0
 14  4  1  0
 11  6  1  0
  1 15  1  0
  3 16  1  0
  3 17  1  0
  5 18  1  0
  5 19  1  0
  7 20  1  0
  7 21  1  0
  8 22  1  0
  9 23  1  0
  9 24  1  0
 10 25  1  0
 10 26  1  0
 12 27  1  0
 12 28  1  0
 13 29  1  0
 14 30  1  0
 14 31  1  0
M  END
$$$$
