
     RDKit          3D

 18 18  0  0  0  0  0  0  0  0999 V2000
    2.6159    1.1707   -0.5381 N   0  0  0  0  0  0  0  0  0  0  0  0
    2.0536   -0.4387   -0.4535 S   0  0  0  0  0  6  0  0  0  0  0  0
    2.9041   -1.2939   -1.3709 O   0  0  0  0  0  0  0  0  0  0  0  0
    2.2235   -1.0080    0.9453 O   0  0  0  0  0  0  0  0  0  0  0  0
    0.4833   -0.5410   -0.9720 O   0  0  0  0  0  0  0  0  0  0  0  0
   -0.4463   -0.1654   -0.0367 C   0  0  1  0  0  0  0  0  0  0  0  0
   -1.3725    0.8891   -0.6470 C   0  0  0  0  0  0  0  0  0  0  0  0
   -2.6261    0.5554   -0.0145 N   0  0  0  0  0  0  0  0  0  0  0  0
   -2.6975   -0.7599    0.1105 O   0  0  0  0  0  0  0  0  0  0  0  0
   -1.4450   -1.2983    0.1695 C   0  0  0  0  0  0  0  0  0  0  0  0
    2.9474    1.5443    0.3768 H   0  0  0  0  0  0  0  0  0  0  0  0
    3.2879    1.3390   -1.3159 H   0  0  0  0  0  0  0  0  0  0  0  0
   -0.0297    0.1511    0.9250 H   0  0  0  0  0  0  0  0  0  0  0  0
   -1.0534    1.9040   -0.4002 H   0  0  0  0  0  0  0  0  0  0  0  0
   -1.4726    0.6887   -1.7218 H   0  0  0  0  0  0  0  0  0  0  0  0
   -2.7839    1.0604    0.8845 H   0  0  0  0  0  0  0  0  0  0  0  0
   -1.2425   -1.7803    1.1264 H   0  0  0  0  0  0  0  0  0  0  0  0
   -1.3461   -2.0172   -0.6957 H   0  0  0  0  0  0  0  0  0  0  0  0
  1  2  1  0
  2  3  2  0
  2  4  2  0
  2  5  1  0
  5  6  1  0
  6  7  1  0
  7  8  1  0
  8  9  1  0
  9 10  1  0
 10  6  1  0
  1 11  1  0
  1 12  1  0
  6 13  1  1
  7 14  1  0
  7 15  1  0
  8 16  1  0
 10 17  1  0
 10 18  1  0
M  END
$$$$

     RDKit          3D

 18 18  0  0  0  0  0  0  0  0999 V2000
    3.3069   -0.4834    0.0146 N   0  0  0  0  0  0  0  0  0  0  0  0
    1.9827    0.6014   -0.2176 S   0  0  0  0  0  6  0  0  0  0  0  0
    2.3747    1.9380    0.3345 O   0  0  0  0  0  0  0  0  0  0  0  0
    1.7507    0.7444   -1.6866 O   0  0  0  0  0  0  0  0  0  0  0  0
    0.6033    0.0504    0.5522 O   0  0  0  0  0  0  0  0  0  0  0  0
   -0.5374    0.2926   -0.1957 C   0  0  1  0  0  0  0  0  0  0  0  0
   -1.2749   -0.9928   -0.4961 C   0  0  0  0  0  0  0  0  0  0  0  0
   -2.4933   -0.9253    0.2267 N   0  0  0  0  0  0  0  0  0  0  0  0
   -2.5805    0.1914    0.9121 O   0  0  0  0  0  0  0  0  0  0  0  0
   -1.5710    1.0462    0.6012 C   0  0  0  0  0  0  0  0  0  0  0  0
    3.5773   -0.5269    1.0099 H   0  0  0  0  0  0  0  0  0  0  0  0
    3.0778   -1.4227   -0.3874 H   0  0  0  0  0  0  0  0  0  0  0  0
   -0.2604    0.7989   -1.1350 H   0  0  0  0  0  0  0  0  0  0  0  0
   -0.6478   -1.8918   -0.2664 H   0  0  0  0  0  0  0  0  0  0  0  0
   -1.5362   -1.0030   -1.5916 H   0  0  0  0  0  0  0  0  0  0  0  0
   -2.7320   -1.7913    0.7574 H   0  0  0  0  0  0  0  0  0  0  0  0
   -1.1139    1.4280    1.5340 H   0  0  0  0  0  0  0  0  0  0  0  0
   -1.9260    1.9457    0.0338 H   0  0  0  0  0  0  0  0  0  0  0  0
  1  2  1  0
  2  3  2  0
  2  4  2  0
  2  5  1  0
  5  6  1  0
  6  7  1  0
  7  8  1  0
  8  9  1  0
  9 10  1  0
 10  6  1  0
  1 11  1  0
  1 12  1  0
  6 13  1  6
  7 14  1  0
  7 15  1  0
  8 16  1  0
 10 17  1  0
 10 18  1  0
M  END
$$$$

     RDKit          3D

 18 18  0  0  0  0  0  0  0  0999 V2000
    3.1029   -1.0848   -0.0213 N   0  0  0  0  0  0  0  0  0  0  0  0
    2.0816    0.2980    0.0486 S   0  0  0  0  0  6  0  0  0  0  0  0
    1.9918    1.0085   -1.2672 O   0  0  0  0  0  0  0  0  0  0  0  0
    2.7303    1.2684    1.0224 O   0  0  0  0  0  0  0  0  0  0  0  0
    0.6071   -0.1243    0.6668 O   0  0  0  0  0  0  0  0  0  0  0  0
   -0.4671    0.3411   -0.0590 C   0  0  1  0  0  0  0  0  0  0  0  0
   -1.3661   -0.8418   -0.3614 C   0  0  0  0  0  0  0  0  0  0  0  0
   -2.6573   -0.2417   -0.4125 N   0  0  0  0  0  0  0  0  0  0  0  0
   -2.6185    0.9731    0.0991 O   0  0  0  0  0  0  0  0  0  0  0  0
   -1.4436    1.1459    0.7985 C   0  0  0  0  0  0  0  0  0  0  0  0
    4.0662   -0.8708   -0.3403 H   0  0  0  0  0  0  0  0  0  0  0  0
    2.6676   -1.8856   -0.5304 H   0  0  0  0  0  0  0  0  0  0  0  0
   -0.2105    0.9263   -0.9454 H   0  0  0  0  0  0  0  0  0  0  0  0
   -1.0740   -1.3600   -1.2915 H   0  0  0  0  0  0  0  0  0  0  0  0
   -1.3206   -1.5023    0.5309 H   0  0  0  0  0  0  0  0  0  0  0  0
   -3.3676   -0.8632    0.0672 H   0  0  0  0  0  0  0  0  0  0  0  0
   -1.5697    0.6233    1.7786 H   0  0  0  0  0  0  0  0  0  0  0  0
   -1.1527    2.1899    0.8968 H   0  0  0  0  0  0  0  0  0  0  0  0
  1  2  1  0
  2  3  2  0
  2  4  2  0
  2  5  1  0
  5  6  1  0
  6  7  1  0
  7  8  1  0
  8  9  1  0
  9 10  1  0
 10  6  1  0
  1 11  1  0
  1 12  1  0
  6 13  1  6
  7 14  1  0
  7 15  1  0
  8 16  1  0
 10 17  1  0
 10 18  1  0
M  END
$$$$

     RDKit          3D

 18 18  0  0  0  0  0  0  0  0999 V2000
    3.2656    0.7154   -0.2617 N   0  0  0  0  0  0  0  0  0  0  0  0
    1.8812   -0.3096   -0.3351 S   0  0  0  0  0  6  0  0  0  0  0  0
    1.7957   -0.8598   -1.7347 O   0  0  0  0  0  0  0  0  0  0  0  0
    2.0050   -1.4729    0.5914 O   0  0  0  0  0  0  0  0  0  0  0  0
    0.4950    0.5487    0.0678 O   0  0  0  0  0  0  0  0  0  0  0  0
   -0.5892   -0.2809   -0.1052 C   0  0  1  0  0  0  0  0  0  0  0  0
   -1.4328   -0.3962    1.1470 C   0  0  0  0  0  0  0  0  0  0  0  0
   -2.4037    0.6220    0.9730 N   0  0  0  0  0  0  0  0  0  0  0  0
   -2.3902    1.0837   -0.2562 O   0  0  0  0  0  0  0  0  0  0  0  0
   -1.5935    0.3257   -1.0578 C   0  0  0  0  0  0  0  0  0  0  0  0
    3.5126    0.9632    0.7210 H   0  0  0  0  0  0  0  0  0  0  0  0
    4.0487    0.2731   -0.7542 H   0  0  0  0  0  0  0  0  0  0  0  0
   -0.2950   -1.2798   -0.4564 H   0  0  0  0  0  0  0  0  0  0  0  0
   -1.9311   -1.4066    1.0957 H   0  0  0  0  0  0  0  0  0  0  0  0
   -0.8407   -0.3407    2.0723 H   0  0  0  0  0  0  0  0  0  0  0  0
   -2.2398    1.3598    1.7129 H   0  0  0  0  0  0  0  0  0  0  0  0
   -1.1192    0.9667   -1.8208 H   0  0  0  0  0  0  0  0  0  0  0  0
   -2.1684   -0.5118   -1.4933 H   0  0  0  0  0  0  0  0  0  0  0  0
  1  2  1  0
  2  3  2  0
  2  4  2  0
  2  5  1  0
  5  6  1  0
  6  7  1  0
  7  8  1  0
  8  9  1  0
  9 10  1  0
 10  6  1  0
  1 11  1  0
  1 12  1  0
  6 13  1  6
  7 14  1  0
  7 15  1  0
  8 16  1  0
 10 17  1  0
 10 18  1  0
M  END
$$$$

     RDKit          3D

 18 18  0  0  0  0  0  0  0  0999 V2000
    2.9056    0.8566    0.5102 N   0  0  0  0  0  0  0  0  0  0  0  0
    2.0984   -0.3277   -0.4490 S   0  0  0  0  0  6  0  0  0  0  0  0
    2.9740   -0.6692   -1.6188 O   0  0  0  0  0  0  0  0  0  0  0  0
    1.9507   -1.5768    0.3798 O   0  0  0  0  0  0  0  0  0  0  0  0
    0.6415    0.2967   -0.9413 O   0  0  0  0  0  0  0  0  0  0  0  0
   -0.4149   -0.2187   -0.2110 C   0  0  1  0  0  0  0  0  0  0  0  0
   -1.2696    0.8534    0.3860 C   0  0  0  0  0  0  0  0  0  0  0  0
   -2.6071    0.4976   -0.1016 N   0  0  0  0  0  0  0  0  0  0  0  0
   -2.3280    0.0865   -1.3626 O   0  0  0  0  0  0  0  0  0  0  0  0
   -1.3873   -0.9335   -1.1304 C   0  0  0  0  0  0  0  0  0  0  0  0
    2.5968    0.8789    1.4899 H   0  0  0  0  0  0  0  0  0  0  0  0
    2.8630    1.7792    0.0337 H   0  0  0  0  0  0  0  0  0  0  0  0
   -0.0304   -0.9435    0.5476 H   0  0  0  0  0  0  0  0  0  0  0  0
   -1.0131    1.8632   -0.0099 H   0  0  0  0  0  0  0  0  0  0  0  0
   -1.2345    0.8887    1.4929 H   0  0  0  0  0  0  0  0  0  0  0  0
   -2.9085   -0.3592    0.4284 H   0  0  0  0  0  0  0  0  0  0  0  0
   -1.9118   -1.7677   -0.6328 H   0  0  0  0  0  0  0  0  0  0  0  0
   -0.9248   -1.2046   -2.0953 H   0  0  0  0  0  0  0  0  0  0  0  0
  1  2  1  0
  2  3  2  0
  2  4  2  0
  2  5  1  0
  5  6  1  0
  6  7  1  0
  7  8  1  0
  8  9  1  0
  9 10  1  0
 10  6  1  0
  1 11  1  0
  1 12  1  0
  6 13  1  1
  7 14  1  0
  7 15  1  0
  8 16  1  0
 10 17  1  0
 10 18  1  0
M  END
$$$$

     RDKit          3D

 18 18  0  0  0  0  0  0  0  0999 V2000
    3.4421   -0.4903    0.1191 N   0  0  0  0  0  0  0  0  0  0  0  0
    1.9078    0.1691    0.5118 S   0  0  0  0  0  6  0  0  0  0  0  0
    1.9527    1.6480    0.1634 O   0  0  0  0  0  0  0  0  0  0  0  0
    1.6026    0.0805    1.9721 O   0  0  0  0  0  0  0  0  0  0  0  0
    0.6670   -0.5932   -0.3564 O   0  0  0  0  0  0  0  0  0  0  0  0
   -0.5086   -0.0519    0.0862 C   0  0  1  0  0  0  0  0  0  0  0  0
   -1.3452    0.5306   -1.0607 C   0  0  0  0  0  0  0  0  0  0  0  0
   -2.6678    0.4009   -0.5634 N   0  0  0  0  0  0  0  0  0  0  0  0
   -2.6813   -0.3350    0.5340 O   0  0  0  0  0  0  0  0  0  0  0  0
   -1.5019   -1.0751    0.5895 C   0  0  0  0  0  0  0  0  0  0  0  0
    3.4721   -0.6654   -0.9032 H   0  0  0  0  0  0  0  0  0  0  0  0
    4.1553    0.2469    0.3176 H   0  0  0  0  0  0  0  0  0  0  0  0
   -0.3889    0.7124    0.8614 H   0  0  0  0  0  0  0  0  0  0  0  0
   -1.0035    1.5396   -1.2790 H   0  0  0  0  0  0  0  0  0  0  0  0
   -1.1431   -0.1574   -1.9282 H   0  0  0  0  0  0  0  0  0  0  0  0
   -3.0478    1.3797   -0.4085 H   0  0  0  0  0  0  0  0  0  0  0  0
   -1.2920   -1.4253    1.6028 H   0  0  0  0  0  0  0  0  0  0  0  0
   -1.6194   -1.9142   -0.1351 H   0  0  0  0  0  0  0  0  0  0  0  0
  1  2  1  0
  2  3  2  0
  2  4  2  0
  2  5  1  0
  5  6  1  0
  6  7  1  0
  7  8  1  0
  8  9  1  0
  9 10  1  0
 10  6  1  0
  1 11  1  0
  1 12  1  0
  6 13  1  1
  7 14  1  0
  7 15  1  0
  8 16  1  0
 10 17  1  0
 10 18  1  0
M  END
$$$$

     RDKit          3D

 18 18  0  0  0  0  0  0  0  0999 V2000
    2.7427   -0.3779   -0.3282 N   0  0  0  0  0  0  0  0  0  0  0  0
    1.8751    1.0561    0.0985 S   0  0  0  0  0  6  0  0  0  0  0  0
    1.7565    1.9724   -1.0862 O   0  0  0  0  0  0  0  0  0  0  0  0
    2.6861    1.7703    1.1642 O   0  0  0  0  0  0  0  0  0  0  0  0
    0.3829    0.7401    0.7331 O   0  0  0  0  0  0  0  0  0  0  0  0
   -0.4627    0.0537   -0.1007 C   0  0  1  0  0  0  0  0  0  0  0  0
   -0.9334   -1.2644    0.5160 C   0  0  0  0  0  0  0  0  0  0  0  0
   -2.3491   -1.2067    0.2547 N   0  0  0  0  0  0  0  0  0  0  0  0
   -2.7149    0.0658    0.4975 O   0  0  0  0  0  0  0  0  0  0  0  0
   -1.7670    0.8107   -0.1933 C   0  0  0  0  0  0  0  0  0  0  0  0
    3.6077   -0.0387   -0.8469 H   0  0  0  0  0  0  0  0  0  0  0  0
    3.1179   -0.8502    0.5235 H   0  0  0  0  0  0  0  0  0  0  0  0
   -0.0439   -0.1974   -1.0785 H   0  0  0  0  0  0  0  0  0  0  0  0
   -0.7038   -1.2703    1.6075 H   0  0  0  0  0  0  0  0  0  0  0  0
   -0.5240   -2.1343   -0.0026 H   0  0  0  0  0  0  0  0  0  0  0  0
   -2.8969   -1.9144    0.7622 H   0  0  0  0  0  0  0  0  0  0  0  0
   -2.0589    0.9834   -1.2436 H   0  0  0  0  0  0  0  0  0  0  0  0
   -1.7141    1.8018    0.3271 H   0  0  0  0  0  0  0  0  0  0  0  0
  1  2  1  0
  2  3  2  0
  2  4  2  0
  2  5  1  0
  5  6  1  0
  6  7  1  0
  7  8  1  0
  8  9  1  0
  9 10  1  0
 10  6  1  0
  1 11  1  0
  1 12  1  0
  6 13  1  6
  7 14  1  0
  7 15  1  0
  8 16  1  0
 10 17  1  0
 10 18  1  0
M  END
$$$$

     RDKit          3D

 18 18  0  0  0  0  0  0  0  0999 V2000
    2.6128    0.3271   -0.6062 N   0  0  0  0  0  0  0  0  0  0  0  0
    1.8721   -1.0582    0.1014 S   0  0  0  0  0  6  0  0  0  0  0  0
    2.5018   -2.3282   -0.3291 O   0  0  0  0  0  0  0  0  0  0  0  0
    2.0070   -0.9197    1.5976 O   0  0  0  0  0  0  0  0  0  0  0  0
    0.2350   -1.0011   -0.2593 O   0  0  0  0  0  0  0  0  0  0  0  0
   -0.3432    0.1116    0.3320 C   0  0  1  0  0  0  0  0  0  0  0  0
   -1.1213    0.9520   -0.6558 C   0  0  0  0  0  0  0  0  0  0  0  0
   -2.4802    0.8890   -0.1257 N   0  0  0  0  0  0  0  0  0  0  0  0
   -2.3220    0.7198    1.2224 O   0  0  0  0  0  0  0  0  0  0  0  0
   -1.4697   -0.3775    1.2486 C   0  0  0  0  0  0  0  0  0  0  0  0
    3.6426    0.1979   -0.7048 H   0  0  0  0  0  0  0  0  0  0  0  0
    2.3798    1.1662   -0.0350 H   0  0  0  0  0  0  0  0  0  0  0  0
    0.4167    0.6624    0.8785 H   0  0  0  0  0  0  0  0  0  0  0  0
   -1.0925    0.4773   -1.6687 H   0  0  0  0  0  0  0  0  0  0  0  0
   -0.7465    1.9737   -0.7495 H   0  0  0  0  0  0  0  0  0  0  0  0
   -2.9849    0.0629   -0.4781 H   0  0  0  0  0  0  0  0  0  0  0  0
   -1.9941   -1.2208    0.7607 H   0  0  0  0  0  0  0  0  0  0  0  0
   -1.1133   -0.6344    2.2465 H   0  0  0  0  0  0  0  0  0  0  0  0
  1  2  1  0
  2  3  2  0
  2  4  2  0
  2  5  1  0
  5  6  1  0
  6  7  1  0
  7  8  1  0
  8  9  1  0
  9 10  1  0
 10  6  1  0
  1 11  1  0
  1 12  1  0
  6 13  1  1
  7 14  1  0
  7 15  1  0
  8 16  1  0
 10 17  1  0
 10 18  1  0
M  END
$$$$
