
     RDKit          3D

 24 25  0  0  0  0  0  0  0  0999 V2000
    2.4400    0.1605   -0.7550 C   0  0  0  0  0  0  0  0  0  0  0  0
    2.1703   -0.2379    0.6179 N   0  0  0  0  0  0  0  0  0  0  0  0
    3.1862   -0.4265    1.4755 N   0  0  0  0  0  0  0  0  0  0  0  0
    2.6368   -0.7756    2.6232 N   0  0  0  0  0  0  0  0  0  0  0  0
    1.3301   -0.8087    2.5049 N   0  0  0  0  0  0  0  0  0  0  0  0
    1.0017   -0.4649    1.2169 C   0  0  0  0  0  0  0  0  0  0  0  0
   -0.1766   -0.4017    0.7713 N   0  0  0  0  0  0  0  0  0  0  0  0
   -0.6228   -0.0661   -0.5180 C   0  0  2  0  0  0  0  0  0  0  0  0
   -1.0065    1.3904   -0.7171 C   0  0  0  0  0  0  0  0  0  0  0  0
   -2.4383    0.9907   -0.4019 C   0  0  0  0  0  0  0  0  0  0  0  0
   -2.0923   -0.4492   -0.7338 C   0  0  2  0  0  0  0  0  0  0  0  0
   -2.5545   -1.4275    0.2189 N   0  0  0  0  0  0  0  0  0  0  0  0
    1.7900    0.9828   -1.0754 H   0  0  0  0  0  0  0  0  0  0  0  0
    3.5174    0.4420   -0.8848 H   0  0  0  0  0  0  0  0  0  0  0  0
    2.3162   -0.7217   -1.4266 H   0  0  0  0  0  0  0  0  0  0  0  0
    4.1999   -0.3222    1.2859 H   0  0  0  0  0  0  0  0  0  0  0  0
   -0.0203   -0.5106   -1.3394 H   0  0  0  0  0  0  0  0  0  0  0  0
   -0.5506    2.0367    0.0504 H   0  0  0  0  0  0  0  0  0  0  0  0
   -0.8991    1.6759   -1.7604 H   0  0  0  0  0  0  0  0  0  0  0  0
   -2.6701    1.1042    0.6601 H   0  0  0  0  0  0  0  0  0  0  0  0
   -3.1933    1.4556   -1.0759 H   0  0  0  0  0  0  0  0  0  0  0  0
   -2.3090   -0.7387   -1.7807 H   0  0  0  0  0  0  0  0  0  0  0  0
   -2.6237   -1.0184    1.1683 H   0  0  0  0  0  0  0  0  0  0  0  0
   -3.4315   -1.8690   -0.1241 H   0  0  0  0  0  0  0  0  0  0  0  0
  1  2  1  0
  2  3  1  0
  3  4  1  0
  4  5  2  0
  5  6  1  0
  6  7  2  3
  7  8  1  0
  8  9  1  0
  9 10  1  0
 10 11  1  0
 11 12  1  0
  6  2  1  0
 11  8  1  0
  1 13  1  0
  1 14  1  0
  1 15  1  0
  3 16  1  0
  8 17  1  6
  9 18  1  0
  9 19  1  0
 10 20  1  0
 10 21  1  0
 11 22  1  6
 12 23  1  0
 12 24  1  0
M  END
$$$$

     RDKit          3D

 24 25  0  0  0  0  0  0  0  0999 V2000
    2.8391    0.9766    1.3145 C   0  0  0  0  0  0  0  0  0  0  0  0
    2.6020   -0.1476    0.4352 N   0  0  0  0  0  0  0  0  0  0  0  0
    3.4609   -1.0628    0.0398 N   0  0  0  0  0  0  0  0  0  0  0  0
    2.8475   -1.9164   -0.7598 N   0  0  0  0  0  0  0  0  0  0  0  0
    1.6053   -1.5254   -0.8573 N   0  0  0  0  0  0  0  0  0  0  0  0
    1.4117   -0.4124   -0.1172 C   0  0  0  0  0  0  0  0  0  0  0  0
    0.2846    0.2436    0.0105 N   0  0  0  0  0  0  0  0  0  0  0  0
   -0.8778   -0.2194   -0.6758 C   0  0  2  0  0  0  0  0  0  0  0  0
   -1.6805    0.7838   -1.4334 C   0  0  0  0  0  0  0  0  0  0  0  0
   -2.9419    0.0568   -0.9551 C   0  0  0  0  0  0  0  0  0  0  0  0
   -2.0867   -0.5126    0.1795 C   0  0  2  0  0  0  0  0  0  0  0  0
   -2.1698    0.2276    1.4144 N   0  0  0  0  0  0  0  0  0  0  0  0
    3.8582    0.8543    1.7483 H   0  0  0  0  0  0  0  0  0  0  0  0
    2.7229    1.9450    0.7955 H   0  0  0  0  0  0  0  0  0  0  0  0
    2.0741    0.9147    2.1318 H   0  0  0  0  0  0  0  0  0  0  0  0
    4.4643   -1.0893    0.3264 H   0  0  0  0  0  0  0  0  0  0  0  0
   -0.6760   -1.1117   -1.3320 H   0  0  0  0  0  0  0  0  0  0  0  0
   -1.5780    0.7058   -2.5344 H   0  0  0  0  0  0  0  0  0  0  0  0
   -1.6426    1.8211   -1.0892 H   0  0  0  0  0  0  0  0  0  0  0  0
   -3.2227   -0.7674   -1.6309 H   0  0  0  0  0  0  0  0  0  0  0  0
   -3.7238    0.7322   -0.6152 H   0  0  0  0  0  0  0  0  0  0  0  0
   -2.2519   -1.5894    0.3759 H   0  0  0  0  0  0  0  0  0  0  0  0
   -2.9837   -0.1521    1.9441 H   0  0  0  0  0  0  0  0  0  0  0  0
   -2.3352    1.2450    1.2845 H   0  0  0  0  0  0  0  0  0  0  0  0
  1  2  1  0
  2  3  1  0
  3  4  1  0
  4  5  2  0
  5  6  1  0
  6  7  2  3
  7  8  1  0
  8  9  1  0
  9 10  1  0
 10 11  1  0
 11 12  1  0
  6  2  1  0
 11  8  1  0
  1 13  1  0
  1 14  1  0
  1 15  1  0
  3 16  1  0
  8 17  1  6
  9 18  1  0
  9 19  1  0
 10 20  1  0
 10 21  1  0
 11 22  1  1
 12 23  1  0
 12 24  1  0
M  END
$$$$

     RDKit          3D

 24 25  0  0  0  0  0  0  0  0999 V2000
    2.9483    1.0056    0.8119 C   0  0  0  0  0  0  0  0  0  0  0  0
    2.4928   -0.3173    0.3629 N   0  0  0  0  0  0  0  0  0  0  0  0
    3.2147   -1.4258    0.3687 N   0  0  0  0  0  0  0  0  0  0  0  0
    2.4449   -2.3703   -0.1058 N   0  0  0  0  0  0  0  0  0  0  0  0
    1.2456   -1.8887   -0.4151 N   0  0  0  0  0  0  0  0  0  0  0  0
    1.2695   -0.5787   -0.1183 C   0  0  0  0  0  0  0  0  0  0  0  0
    0.2640    0.2073   -0.2934 N   0  0  0  0  0  0  0  0  0  0  0  0
   -0.9826   -0.2360   -0.8227 C   0  0  2  0  0  0  0  0  0  0  0  0
   -1.6897    0.8920   -1.5738 C   0  0  0  0  0  0  0  0  0  0  0  0
   -2.8266    0.8313   -0.5920 C   0  0  0  0  0  0  0  0  0  0  0  0
   -2.1433   -0.3247    0.1075 C   0  0  2  0  0  0  0  0  0  0  0  0
   -1.8890   -0.0541    1.4985 N   0  0  0  0  0  0  0  0  0  0  0  0
    4.0725    1.0131    0.7218 H   0  0  0  0  0  0  0  0  0  0  0  0
    2.7292    1.1713    1.8812 H   0  0  0  0  0  0  0  0  0  0  0  0
    2.5700    1.7865    0.1431 H   0  0  0  0  0  0  0  0  0  0  0  0
    4.2156   -1.4585    0.7081 H   0  0  0  0  0  0  0  0  0  0  0  0
   -0.8995   -1.1406   -1.4893 H   0  0  0  0  0  0  0  0  0  0  0  0
   -1.9712    0.6262   -2.5993 H   0  0  0  0  0  0  0  0  0  0  0  0
   -1.1228    1.8486   -1.5609 H   0  0  0  0  0  0  0  0  0  0  0  0
   -2.8845    1.7350    0.0581 H   0  0  0  0  0  0  0  0  0  0  0  0
   -3.8084    0.5712   -1.0227 H   0  0  0  0  0  0  0  0  0  0  0  0
   -2.7611   -1.2568    0.0125 H   0  0  0  0  0  0  0  0  0  0  0  0
   -1.6975   -0.9578    2.0122 H   0  0  0  0  0  0  0  0  0  0  0  0
   -2.7906    0.3213    1.9069 H   0  0  0  0  0  0  0  0  0  0  0  0
  1  2  1  0
  2  3  1  0
  3  4  1  0
  4  5  2  0
  5  6  1  0
  6  7  2  3
  7  8  1  0
  8  9  1  0
  9 10  1  0
 10 11  1  0
 11 12  1  0
  6  2  1  0
 11  8  1  0
  1 13  1  0
  1 14  1  0
  1 15  1  0
  3 16  1  0
  8 17  1  6
  9 18  1  0
  9 19  1  0
 10 20  1  0
 10 21  1  0
 11 22  1  1
 12 23  1  0
 12 24  1  0
M  END
$$$$

     RDKit          3D

 24 25  0  0  0  0  0  0  0  0999 V2000
    2.3665    0.5882   -0.7390 C   0  0  0  0  0  0  0  0  0  0  0  0
    2.2327   -0.5470    0.1498 N   0  0  0  0  0  0  0  0  0  0  0  0
    3.3087   -1.1341    0.6890 N   0  0  0  0  0  0  0  0  0  0  0  0
    2.9148   -2.1339    1.4555 N   0  0  0  0  0  0  0  0  0  0  0  0
    1.6055   -2.1752    1.3989 N   0  0  0  0  0  0  0  0  0  0  0  0
    1.1292   -1.1717    0.5700 C   0  0  0  0  0  0  0  0  0  0  0  0
   -0.0889   -0.9741    0.3259 N   0  0  0  0  0  0  0  0  0  0  0  0
   -0.6522    0.0060   -0.4966 C   0  0  2  0  0  0  0  0  0  0  0  0
   -1.1655    1.2635    0.1853 C   0  0  0  0  0  0  0  0  0  0  0  0
   -2.3249    1.2303   -0.8218 C   0  0  0  0  0  0  0  0  0  0  0  0
   -2.1487   -0.2724   -0.8204 C   0  0  2  0  0  0  0  0  0  0  0  0
   -2.8070   -0.9384    0.2605 N   0  0  0  0  0  0  0  0  0  0  0  0
    3.4224    0.9724   -0.7418 H   0  0  0  0  0  0  0  0  0  0  0  0
    2.1852    0.2642   -1.7785 H   0  0  0  0  0  0  0  0  0  0  0  0
    1.6670    1.3638   -0.4127 H   0  0  0  0  0  0  0  0  0  0  0  0
    4.3031   -0.8499    0.5309 H   0  0  0  0  0  0  0  0  0  0  0  0
   -0.1310    0.2789   -1.4568 H   0  0  0  0  0  0  0  0  0  0  0  0
   -0.5113    2.1192    0.0731 H   0  0  0  0  0  0  0  0  0  0  0  0
   -1.5057    1.1038    1.2215 H   0  0  0  0  0  0  0  0  0  0  0  0
   -2.0478    1.7357   -1.7461 H   0  0  0  0  0  0  0  0  0  0  0  0
   -3.2849    1.5132   -0.3642 H   0  0  0  0  0  0  0  0  0  0  0  0
   -2.3041   -0.7069   -1.8076 H   0  0  0  0  0  0  0  0  0  0  0  0
   -3.8216   -0.7792    0.2535 H   0  0  0  0  0  0  0  0  0  0  0  0
   -2.3418   -0.7565    1.1573 H   0  0  0  0  0  0  0  0  0  0  0  0
  1  2  1  0
  2  3  1  0
  3  4  1  0
  4  5  2  0
  5  6  1  0
  6  7  2  3
  7  8  1  0
  8  9  1  0
  9 10  1  0
 10 11  1  0
 11 12  1  0
  6  2  1  0
 11  8  1  0
  1 13  1  0
  1 14  1  0
  1 15  1  0
  3 16  1  0
  8 17  1  6
  9 18  1  0
  9 19  1  0
 10 20  1  0
 10 21  1  0
 11 22  1  6
 12 23  1  0
 12 24  1  0
M  END
$$$$

     RDKit          3D

 24 25  0  0  0  0  0  0  0  0999 V2000
    2.9677    1.2122    0.3327 C   0  0  0  0  0  0  0  0  0  0  0  0
    2.5378   -0.1373    0.0105 N   0  0  0  0  0  0  0  0  0  0  0  0
    3.3296   -1.1827   -0.2048 N   0  0  0  0  0  0  0  0  0  0  0  0
    2.6226   -2.2606   -0.4732 N   0  0  0  0  0  0  0  0  0  0  0  0
    1.3612   -1.8857   -0.4258 N   0  0  0  0  0  0  0  0  0  0  0  0
    1.2838   -0.5764   -0.1283 C   0  0  0  0  0  0  0  0  0  0  0  0
    0.2007    0.0729   -0.0126 N   0  0  0  0  0  0  0  0  0  0  0  0
   -1.0957   -0.4971   -0.1826 C   0  0  2  0  0  0  0  0  0  0  0  0
   -2.0899    0.3540   -0.9552 C   0  0  0  0  0  0  0  0  0  0  0  0
   -3.1428   -0.2117   -0.0200 C   0  0  0  0  0  0  0  0  0  0  0  0
   -2.0249   -0.3146    1.0070 C   0  0  2  0  0  0  0  0  0  0  0  0
   -1.7833    0.9482    1.6431 N   0  0  0  0  0  0  0  0  0  0  0  0
    4.0860    1.2633    0.2374 H   0  0  0  0  0  0  0  0  0  0  0  0
    2.5762    1.9447   -0.3941 H   0  0  0  0  0  0  0  0  0  0  0  0
    2.7201    1.5155    1.3546 H   0  0  0  0  0  0  0  0  0  0  0  0
    4.3832   -1.1906   -0.1745 H   0  0  0  0  0  0  0  0  0  0  0  0
   -1.1338   -1.5321   -0.5779 H   0  0  0  0  0  0  0  0  0  0  0  0
   -2.2104    0.0749   -2.0155 H   0  0  0  0  0  0  0  0  0  0  0  0
   -1.9154    1.4148   -0.7314 H   0  0  0  0  0  0  0  0  0  0  0  0
   -3.9475    0.4992    0.2499 H   0  0  0  0  0  0  0  0  0  0  0  0
   -3.4887   -1.2352   -0.2861 H   0  0  0  0  0  0  0  0  0  0  0  0
   -2.0925   -1.1948    1.6707 H   0  0  0  0  0  0  0  0  0  0  0  0
   -0.7919    1.1971    1.7558 H   0  0  0  0  0  0  0  0  0  0  0  0
   -2.3521    1.7222    1.2373 H   0  0  0  0  0  0  0  0  0  0  0  0
  1  2  1  0
  2  3  1  0
  3  4  1  0
  4  5  2  0
  5  6  1  0
  6  7  2  3
  7  8  1  0
  8  9  1  0
  9 10  1  0
 10 11  1  0
 11 12  1  0
  6  2  1  0
 11  8  1  0
  1 13  1  0
  1 14  1  0
  1 15  1  0
  3 16  1  0
  8 17  1  6
  9 18  1  0
  9 19  1  0
 10 20  1  0
 10 21  1  0
 11 22  1  1
 12 23  1  0
 12 24  1  0
M  END
$$$$

     RDKit          3D

 24 25  0  0  0  0  0  0  0  0999 V2000
    2.9224    1.4704    0.2347 C   0  0  0  0  0  0  0  0  0  0  0  0
    2.5819    0.0626    0.2201 N   0  0  0  0  0  0  0  0  0  0  0  0
    3.4444   -0.9131    0.3942 N   0  0  0  0  0  0  0  0  0  0  0  0
    2.8092   -2.0903    0.3232 N   0  0  0  0  0  0  0  0  0  0  0  0
    1.5550   -1.8059    0.1043 N   0  0  0  0  0  0  0  0  0  0  0  0
    1.3595   -0.4626    0.0310 C   0  0  0  0  0  0  0  0  0  0  0  0
    0.2596    0.1820   -0.1729 N   0  0  0  0  0  0  0  0  0  0  0  0
   -0.9416   -0.5563   -0.3520 C   0  0  2  0  0  0  0  0  0  0  0  0
   -1.9543    0.0224   -1.3179 C   0  0  0  0  0  0  0  0  0  0  0  0
   -3.0143   -0.6170   -0.4076 C   0  0  0  0  0  0  0  0  0  0  0  0
   -2.0121   -0.3390    0.7254 C   0  0  2  0  0  0  0  0  0  0  0  0
   -2.1506    1.0414    1.1262 N   0  0  0  0  0  0  0  0  0  0  0  0
    1.9896    2.0843    0.1628 H   0  0  0  0  0  0  0  0  0  0  0  0
    3.5598    1.7041   -0.6244 H   0  0  0  0  0  0  0  0  0  0  0  0
    3.4190    1.7316    1.1944 H   0  0  0  0  0  0  0  0  0  0  0  0
    4.4764   -0.8754    0.5661 H   0  0  0  0  0  0  0  0  0  0  0  0
   -0.8354   -1.6450   -0.5179 H   0  0  0  0  0  0  0  0  0  0  0  0
   -1.9342   -0.3659   -2.3321 H   0  0  0  0  0  0  0  0  0  0  0  0
   -2.0624    1.1302   -1.2155 H   0  0  0  0  0  0  0  0  0  0  0  0
   -3.0569   -1.7051   -0.5613 H   0  0  0  0  0  0  0  0  0  0  0  0
   -3.9505   -0.0671   -0.3361 H   0  0  0  0  0  0  0  0  0  0  0  0
   -2.0003   -1.0871    1.5172 H   0  0  0  0  0  0  0  0  0  0  0  0
   -1.3841    1.6471    0.7634 H   0  0  0  0  0  0  0  0  0  0  0  0
   -3.0800    1.4538    0.8111 H   0  0  0  0  0  0  0  0  0  0  0  0
  1  2  1  0
  2  3  1  0
  3  4  1  0
  4  5  2  0
  5  6  1  0
  6  7  2  3
  7  8  1  0
  8  9  1  0
  9 10  1  0
 10 11  1  0
 11 12  1  0
  6  2  1  0
 11  8  1  0
  1 13  1  0
  1 14  1  0
  1 15  1  0
  3 16  1  0
  8 17  1  6
  9 18  1  0
  9 19  1  0
 10 20  1  0
 10 21  1  0
 11 22  1  1
 12 23  1  0
 12 24  1  0
M  END
$$$$

     RDKit          3D

 24 25  0  0  0  0  0  0  0  0999 V2000
   -3.3429   -0.4816   -0.5120 C   0  0  0  0  0  0  0  0  0  0  0  0
   -2.3088    0.5091   -0.3441 N   0  0  0  0  0  0  0  0  0  0  0  0
   -2.5090    1.8021   -0.4875 N   0  0  0  0  0  0  0  0  0  0  0  0
   -1.3707    2.4021   -0.2660 N   0  0  0  0  0  0  0  0  0  0  0  0
   -0.4468    1.5282    0.0155 N   0  0  0  0  0  0  0  0  0  0  0  0
   -0.9938    0.3177   -0.0221 C   0  0  0  0  0  0  0  0  0  0  0  0
   -0.4993   -0.8285    0.1791 N   0  0  0  0  0  0  0  0  0  0  0  0
    0.8362   -1.0877    0.5109 C   0  0  2  0  0  0  0  0  0  0  0  0
    1.5925   -0.1267    1.3950 C   0  0  0  0  0  0  0  0  0  0  0  0
    2.8468   -0.6122    0.6443 C   0  0  0  0  0  0  0  0  0  0  0  0
    1.9015   -0.7912   -0.5554 C   0  0  2  0  0  0  0  0  0  0  0  0
    1.7105    0.4768   -1.2190 N   0  0  0  0  0  0  0  0  0  0  0  0
   -2.9641   -1.5035   -0.6536 H   0  0  0  0  0  0  0  0  0  0  0  0
   -3.9627   -0.4957    0.4153 H   0  0  0  0  0  0  0  0  0  0  0  0
   -4.0271   -0.2655   -1.3549 H   0  0  0  0  0  0  0  0  0  0  0  0
   -3.3942    2.3150   -0.7329 H   0  0  0  0  0  0  0  0  0  0  0  0
    1.0657   -2.1221    0.8887 H   0  0  0  0  0  0  0  0  0  0  0  0
    1.4792    0.9474    1.1890 H   0  0  0  0  0  0  0  0  0  0  0  0
    1.5998   -0.4058    2.4657 H   0  0  0  0  0  0  0  0  0  0  0  0
    3.6178    0.1418    0.5103 H   0  0  0  0  0  0  0  0  0  0  0  0
    3.1427   -1.5909    1.0607 H   0  0  0  0  0  0  0  0  0  0  0  0
    2.1485   -1.6397   -1.1948 H   0  0  0  0  0  0  0  0  0  0  0  0
    1.3267    0.4083   -2.1697 H   0  0  0  0  0  0  0  0  0  0  0  0
    2.5517    1.1026   -1.1491 H   0  0  0  0  0  0  0  0  0  0  0  0
  1  2  1  0
  2  3  1  0
  3  4  1  0
  4  5  2  0
  5  6  1  0
  6  7  2  3
  7  8  1  0
  8  9  1  0
  9 10  1  0
 10 11  1  0
 11 12  1  0
  6  2  1  0
 11  8  1  0
  1 13  1  0
  1 14  1  0
  1 15  1  0
  3 16  1  0
  8 17  1  1
  9 18  1  0
  9 19  1  0
 10 20  1  0
 10 21  1  0
 11 22  1  6
 12 23  1  0
 12 24  1  0
M  END
$$$$

     RDKit          3D

 24 25  0  0  0  0  0  0  0  0999 V2000
   -3.1883    0.6008   -1.0024 C   0  0  0  0  0  0  0  0  0  0  0  0
   -2.3264    0.0756    0.0182 N   0  0  0  0  0  0  0  0  0  0  0  0
   -2.7782   -0.4236    1.1738 N   0  0  0  0  0  0  0  0  0  0  0  0
   -1.7395   -0.8171    1.8809 N   0  0  0  0  0  0  0  0  0  0  0  0
   -0.6502   -0.5610    1.1628 N   0  0  0  0  0  0  0  0  0  0  0  0
   -0.9851   -0.0041   -0.0038 C   0  0  0  0  0  0  0  0  0  0  0  0
   -0.2361    0.3686   -0.9265 N   0  0  0  0  0  0  0  0  0  0  0  0
    1.1587    0.3617   -1.1151 C   0  0  2  0  0  0  0  0  0  0  0  0
    1.8105   -0.9640   -1.4214 C   0  0  0  0  0  0  0  0  0  0  0  0
    2.3671   -0.9594   -0.0214 C   0  0  0  0  0  0  0  0  0  0  0  0
    2.0783    0.5010    0.0439 C   0  0  2  0  0  0  0  0  0  0  0  0
    1.5498    0.9992    1.2791 N   0  0  0  0  0  0  0  0  0  0  0  0
   -2.6883    1.3112   -1.6851 H   0  0  0  0  0  0  0  0  0  0  0  0
   -3.6323   -0.2619   -1.5436 H   0  0  0  0  0  0  0  0  0  0  0  0
   -4.0244    1.1403   -0.5180 H   0  0  0  0  0  0  0  0  0  0  0  0
   -3.7799   -0.4950    1.4759 H   0  0  0  0  0  0  0  0  0  0  0  0
    1.4295    1.0945   -1.9558 H   0  0  0  0  0  0  0  0  0  0  0  0
    2.6571   -0.8650   -2.1441 H   0  0  0  0  0  0  0  0  0  0  0  0
    1.1110   -1.7918   -1.6488 H   0  0  0  0  0  0  0  0  0  0  0  0
    1.8615   -1.6272    0.7043 H   0  0  0  0  0  0  0  0  0  0  0  0
    3.4633   -1.1920    0.0283 H   0  0  0  0  0  0  0  0  0  0  0  0
    3.0080    1.0792   -0.2472 H   0  0  0  0  0  0  0  0  0  0  0  0
    1.7972    0.4178    2.1072 H   0  0  0  0  0  0  0  0  0  0  0  0
    1.7367    2.0122    1.4187 H   0  0  0  0  0  0  0  0  0  0  0  0
  1  2  1  0
  2  3  1  0
  3  4  1  0
  4  5  2  0
  5  6  1  0
  6  7  2  3
  7  8  1  0
  8  9  1  0
  9 10  1  0
 10 11  1  0
 11 12  1  0
  6  2  1  0
 11  8  1  0
  1 13  1  0
  1 14  1  0
  1 15  1  0
  3 16  1  0
  8 17  1  6
  9 18  1  0
  9 19  1  0
 10 20  1  0
 10 21  1  0
 11 22  1  6
 12 23  1  0
 12 24  1  0
M  END
$$$$
