
     RDKit          3D

 29 29  0  0  0  0  0  0  0  0999 V2000
   -2.3067    1.8035    1.3185 C   0  0  0  0  0  0  0  0  0  0  0  0
   -2.0680    1.6042   -0.0891 N   0  0  0  0  0  0  0  0  0  0  0  0
   -2.3622    0.2788   -0.5432 C   0  0  0  0  0  0  0  0  0  0  0  0
   -1.4219   -0.7500   -0.0037 C   0  0  1  0  0  0  0  0  0  0  0  0
   -1.8018   -2.1142   -0.5301 C   0  0  0  0  0  0  0  0  0  0  0  0
   -0.0285   -0.4431   -0.2394 N   0  0  0  0  0  0  0  0  0  0  0  0
    0.9169   -0.2714    0.7895 C   0  0  0  0  0  0  0  0  0  0  0  0
    0.5778   -0.3827    1.9932 O   0  0  0  0  0  0  0  0  0  0  0  0
    2.3063    0.0394    0.4664 C   0  0  0  0  0  0  0  0  0  0  0  0
    3.0339   -0.9384   -0.4374 C   0  0  0  0  0  0  0  0  0  0  0  0
    3.7691    0.2367   -0.9353 N   0  0  0  0  0  0  0  0  0  0  0  0
    2.5361    0.9985   -0.6761 C   0  0  0  0  0  0  0  0  0  0  0  0
   -3.3733    1.5346    1.5360 H   0  0  0  0  0  0  0  0  0  0  0  0
   -1.7001    1.1520    1.9663 H   0  0  0  0  0  0  0  0  0  0  0  0
   -2.1185    2.8669    1.5477 H   0  0  0  0  0  0  0  0  0  0  0  0
   -1.1090    1.8641   -0.3611 H   0  0  0  0  0  0  0  0  0  0  0  0
   -2.3603    0.2811   -1.6580 H   0  0  0  0  0  0  0  0  0  0  0  0
   -3.3792    0.0203   -0.1533 H   0  0  0  0  0  0  0  0  0  0  0  0
   -1.5606   -0.8011    1.0992 H   0  0  0  0  0  0  0  0  0  0  0  0
   -2.9065   -2.1151   -0.6604 H   0  0  0  0  0  0  0  0  0  0  0  0
   -1.5980   -2.8901    0.2479 H   0  0  0  0  0  0  0  0  0  0  0  0
   -1.3569   -2.3560   -1.5018 H   0  0  0  0  0  0  0  0  0  0  0  0
    0.2846   -0.3476   -1.2260 H   0  0  0  0  0  0  0  0  0  0  0  0
    2.9510    0.3378    1.3226 H   0  0  0  0  0  0  0  0  0  0  0  0
    2.3832   -1.3279   -1.2539 H   0  0  0  0  0  0  0  0  0  0  0  0
    3.6403   -1.6952    0.0562 H   0  0  0  0  0  0  0  0  0  0  0  0
    4.4490    0.5100   -0.1631 H   0  0  0  0  0  0  0  0  0  0  0  0
    2.7337    2.0514   -0.3828 H   0  0  0  0  0  0  0  0  0  0  0  0
    1.8699    0.8533   -1.5287 H   0  0  0  0  0  0  0  0  0  0  0  0
  1  2  1  0
  2  3  1  0
  3  4  1  0
  4  5  1  0
  4  6  1  0
  6  7  1  0
  7  8  2  0
  7  9  1  0
  9 10  1  0
 10 11  1  0
 11 12  1  0
 12  9  1  0
  1 13  1  0
  1 14  1  0
  1 15  1  0
  2 16  1  0
  3 17  1  0
  3 18  1  0
  4 19  1  1
  5 20  1  0
  5 21  1  0
  5 22  1  0
  6 23  1  0
  9 24  1  0
 10 25  1  0
 10 26  1  0
 11 27  1  0
 12 28  1  0
 12 29  1  0
M  END
$$$$

     RDKit          3D

 29 29  0  0  0  0  0  0  0  0999 V2000
    4.5039    0.0541    1.0574 C   0  0  0  0  0  0  0  0  0  0  0  0
    3.3397    0.4642    0.3012 N   0  0  0  0  0  0  0  0  0  0  0  0
    2.1625   -0.3121    0.6363 C   0  0  0  0  0  0  0  0  0  0  0  0
    1.0288    0.2111   -0.2139 C   0  0  1  0  0  0  0  0  0  0  0  0
    1.4659    0.0055   -1.6704 C   0  0  0  0  0  0  0  0  0  0  0  0
   -0.1881   -0.5074   -0.0408 N   0  0  0  0  0  0  0  0  0  0  0  0
   -1.3557    0.2183    0.3679 C   0  0  0  0  0  0  0  0  0  0  0  0
   -1.2492    1.4677    0.5562 O   0  0  0  0  0  0  0  0  0  0  0  0
   -2.6567   -0.4150    0.5761 C   0  0  0  0  0  0  0  0  0  0  0  0
   -3.7141    0.5726    1.0028 C   0  0  0  0  0  0  0  0  0  0  0  0
   -4.3086    0.5876   -0.3182 N   0  0  0  0  0  0  0  0  0  0  0  0
   -3.5111   -0.5844   -0.6596 C   0  0  0  0  0  0  0  0  0  0  0  0
    4.3598    0.0608    2.1390 H   0  0  0  0  0  0  0  0  0  0  0  0
    4.8343   -0.9268    0.6637 H   0  0  0  0  0  0  0  0  0  0  0  0
    5.3013    0.8085    0.8268 H   0  0  0  0  0  0  0  0  0  0  0  0
    3.1650    1.4911    0.3534 H   0  0  0  0  0  0  0  0  0  0  0  0
    2.3969   -1.3667    0.3594 H   0  0  0  0  0  0  0  0  0  0  0  0
    1.9259   -0.3028    1.7123 H   0  0  0  0  0  0  0  0  0  0  0  0
    0.8860    1.2671    0.0019 H   0  0  0  0  0  0  0  0  0  0  0  0
    1.5426   -1.0957   -1.8021 H   0  0  0  0  0  0  0  0  0  0  0  0
    0.7429    0.4757   -2.3538 H   0  0  0  0  0  0  0  0  0  0  0  0
    2.4863    0.4475   -1.7403 H   0  0  0  0  0  0  0  0  0  0  0  0
   -0.3188   -1.5269   -0.1837 H   0  0  0  0  0  0  0  0  0  0  0  0
   -2.6423   -1.3313    1.2363 H   0  0  0  0  0  0  0  0  0  0  0  0
   -3.3369    1.5956    1.2426 H   0  0  0  0  0  0  0  0  0  0  0  0
   -4.3834    0.2252    1.8151 H   0  0  0  0  0  0  0  0  0  0  0  0
   -5.3368    0.4193   -0.2928 H   0  0  0  0  0  0  0  0  0  0  0  0
   -4.1610   -1.4925   -0.5597 H   0  0  0  0  0  0  0  0  0  0  0  0
   -2.9792   -0.5101   -1.6237 H   0  0  0  0  0  0  0  0  0  0  0  0
  1  2  1  0
  2  3  1  0
  3  4  1  0
  4  5  1  0
  4  6  1  0
  6  7  1  0
  7  8  2  0
  7  9  1  0
  9 10  1  0
 10 11  1  0
 11 12  1  0
 12  9  1  0
  1 13  1  0
  1 14  1  0
  1 15  1  0
  2 16  1  0
  3 17  1  0
  3 18  1  0
  4 19  1  6
  5 20  1  0
  5 21  1  0
  5 22  1  0
  6 23  1  0
  9 24  1  0
 10 25  1  0
 10 26  1  0
 11 27  1  0
 12 28  1  0
 12 29  1  0
M  END
$$$$

     RDKit          3D

 29 29  0  0  0  0  0  0  0  0999 V2000
   -2.0057    1.6863   -0.4548 C   0  0  0  0  0  0  0  0  0  0  0  0
   -2.8372    0.5650   -0.2348 N   0  0  0  0  0  0  0  0  0  0  0  0
   -2.4000   -0.4410    0.6464 C   0  0  0  0  0  0  0  0  0  0  0  0
   -1.2397   -1.2798    0.2198 C   0  0  1  0  0  0  0  0  0  0  0  0
   -1.6006   -1.9899   -1.0627 C   0  0  0  0  0  0  0  0  0  0  0  0
    0.0056   -0.5773    0.0557 N   0  0  0  0  0  0  0  0  0  0  0  0
    1.1483   -0.8013    0.8547 C   0  0  0  0  0  0  0  0  0  0  0  0
    1.0137   -1.6895    1.7615 O   0  0  0  0  0  0  0  0  0  0  0  0
    2.4374   -0.1344    0.7466 C   0  0  0  0  0  0  0  0  0  0  0  0
    2.4359    1.3692    0.8921 C   0  0  0  0  0  0  0  0  0  0  0  0
    3.5129    1.3964   -0.1069 N   0  0  0  0  0  0  0  0  0  0  0  0
    3.0256    0.1022   -0.5998 C   0  0  0  0  0  0  0  0  0  0  0  0
   -1.2714    1.7749    0.3547 H   0  0  0  0  0  0  0  0  0  0  0  0
   -2.6402    2.6173   -0.4113 H   0  0  0  0  0  0  0  0  0  0  0  0
   -1.5232    1.7240   -1.4544 H   0  0  0  0  0  0  0  0  0  0  0  0
   -3.7767    0.5559   -0.6034 H   0  0  0  0  0  0  0  0  0  0  0  0
   -3.2747   -1.1368    0.8128 H   0  0  0  0  0  0  0  0  0  0  0  0
   -2.2557    0.0270    1.6529 H   0  0  0  0  0  0  0  0  0  0  0  0
   -1.1382   -2.1002    0.9993 H   0  0  0  0  0  0  0  0  0  0  0  0
   -2.3933   -2.7545   -0.8998 H   0  0  0  0  0  0  0  0  0  0  0  0
   -1.8476   -1.2986   -1.8801 H   0  0  0  0  0  0  0  0  0  0  0  0
   -0.6973   -2.5621   -1.3909 H   0  0  0  0  0  0  0  0  0  0  0  0
    0.0988    0.1431   -0.6929 H   0  0  0  0  0  0  0  0  0  0  0  0
    3.2222   -0.5721    1.4171 H   0  0  0  0  0  0  0  0  0  0  0  0
    2.7852    1.6886    1.8875 H   0  0  0  0  0  0  0  0  0  0  0  0
    1.5049    1.8484    0.5627 H   0  0  0  0  0  0  0  0  0  0  0  0
    3.4197    2.1776   -0.7947 H   0  0  0  0  0  0  0  0  0  0  0  0
    2.3631    0.1943   -1.4623 H   0  0  0  0  0  0  0  0  0  0  0  0
    3.9282   -0.5328   -0.8153 H   0  0  0  0  0  0  0  0  0  0  0  0
  1  2  1  0
  2  3  1  0
  3  4  1  0
  4  5  1  0
  4  6  1  0
  6  7  1  0
  7  8  2  0
  7  9  1  0
  9 10  1  0
 10 11  1  0
 11 12  1  0
 12  9  1  0
  1 13  1  0
  1 14  1  0
  1 15  1  0
  2 16  1  0
  3 17  1  0
  3 18  1  0
  4 19  1  1
  5 20  1  0
  5 21  1  0
  5 22  1  0
  6 23  1  0
  9 24  1  0
 10 25  1  0
 10 26  1  0
 11 27  1  0
 12 28  1  0
 12 29  1  0
M  END
$$$$

     RDKit          3D

 29 29  0  0  0  0  0  0  0  0999 V2000
   -3.7669    0.4762    0.0418 C   0  0  0  0  0  0  0  0  0  0  0  0
   -3.1838   -0.2796   -1.0329 N   0  0  0  0  0  0  0  0  0  0  0  0
   -1.7804    0.0527   -1.2244 C   0  0  0  0  0  0  0  0  0  0  0  0
   -1.0431   -0.4565   -0.0073 C   0  0  1  0  0  0  0  0  0  0  0  0
   -1.1758   -1.9286    0.1828 C   0  0  0  0  0  0  0  0  0  0  0  0
    0.3670   -0.1338   -0.0388 N   0  0  0  0  0  0  0  0  0  0  0  0
    0.9639    0.7226    0.9003 C   0  0  0  0  0  0  0  0  0  0  0  0
    0.2431    1.2303    1.8053 O   0  0  0  0  0  0  0  0  0  0  0  0
    2.4024    1.0477    0.8651 C   0  0  0  0  0  0  0  0  0  0  0  0
    3.3113   -0.1521    1.0278 C   0  0  0  0  0  0  0  0  0  0  0  0
    3.2423   -0.3421   -0.4049 N   0  0  0  0  0  0  0  0  0  0  0  0
    3.0154    1.0717   -0.5421 C   0  0  0  0  0  0  0  0  0  0  0  0
   -4.8687    0.6083   -0.1370 H   0  0  0  0  0  0  0  0  0  0  0  0
   -3.3417    1.4986    0.0611 H   0  0  0  0  0  0  0  0  0  0  0  0
   -3.5892    0.0155    1.0423 H   0  0  0  0  0  0  0  0  0  0  0  0
   -3.7238   -0.1021   -1.9134 H   0  0  0  0  0  0  0  0  0  0  0  0
   -1.7245    1.1449   -1.2927 H   0  0  0  0  0  0  0  0  0  0  0  0
   -1.3962   -0.4696   -2.1130 H   0  0  0  0  0  0  0  0  0  0  0  0
   -1.4778    0.0580    0.8729 H   0  0  0  0  0  0  0  0  0  0  0  0
   -0.7271   -2.5198   -0.6351 H   0  0  0  0  0  0  0  0  0  0  0  0
   -0.6222   -2.1880    1.1283 H   0  0  0  0  0  0  0  0  0  0  0  0
   -2.2278   -2.1803    0.3671 H   0  0  0  0  0  0  0  0  0  0  0  0
    0.9132   -0.5853   -0.8136 H   0  0  0  0  0  0  0  0  0  0  0  0
    2.6966    1.9028    1.5017 H   0  0  0  0  0  0  0  0  0  0  0  0
    4.3023    0.1900    1.4079 H   0  0  0  0  0  0  0  0  0  0  0  0
    2.8952   -0.9678    1.6493 H   0  0  0  0  0  0  0  0  0  0  0  0
    4.0714   -0.7458   -0.8654 H   0  0  0  0  0  0  0  0  0  0  0  0
    3.9299    1.7165   -0.4981 H   0  0  0  0  0  0  0  0  0  0  0  0
    2.2947    1.3157   -1.3348 H   0  0  0  0  0  0  0  0  0  0  0  0
  1  2  1  0
  2  3  1  0
  3  4  1  0
  4  5  1  0
  4  6  1  0
  6  7  1  0
  7  8  2  0
  7  9  1  0
  9 10  1  0
 10 11  1  0
 11 12  1  0
 12  9  1  0
  1 13  1  0
  1 14  1  0
  1 15  1  0
  2 16  1  0
  3 17  1  0
  3 18  1  0
  4 19  1  1
  5 20  1  0
  5 21  1  0
  5 22  1  0
  6 23  1  0
  9 24  1  0
 10 25  1  0
 10 26  1  0
 11 27  1  0
 12 28  1  0
 12 29  1  0
M  END
$$$$

     RDKit          3D

 29 29  0  0  0  0  0  0  0  0999 V2000
    1.6653    1.9362   -0.7451 C   0  0  0  0  0  0  0  0  0  0  0  0
    2.5394    0.8648   -1.0760 N   0  0  0  0  0  0  0  0  0  0  0  0
    1.9609   -0.3705   -1.4542 C   0  0  0  0  0  0  0  0  0  0  0  0
    1.2470   -1.1401   -0.3903 C   0  0  1  0  0  0  0  0  0  0  0  0
    2.1586   -1.4970    0.7673 C   0  0  0  0  0  0  0  0  0  0  0  0
    0.0282   -0.5469    0.0834 N   0  0  0  0  0  0  0  0  0  0  0  0
   -1.2103   -1.2015   -0.1173 C   0  0  0  0  0  0  0  0  0  0  0  0
   -1.2784   -2.3276   -0.7204 O   0  0  0  0  0  0  0  0  0  0  0  0
   -2.4772   -0.6308    0.3509 C   0  0  0  0  0  0  0  0  0  0  0  0
   -2.8700    0.7136   -0.2220 C   0  0  0  0  0  0  0  0  0  0  0  0
   -2.0977    1.3393    0.8329 N   0  0  0  0  0  0  0  0  0  0  0  0
   -2.3313    0.1600    1.6465 C   0  0  0  0  0  0  0  0  0  0  0  0
    2.0772    2.9323   -1.1050 H   0  0  0  0  0  0  0  0  0  0  0  0
    0.6524    1.8905   -1.1380 H   0  0  0  0  0  0  0  0  0  0  0  0
    1.6768    2.0717    0.3776 H   0  0  0  0  0  0  0  0  0  0  0  0
    3.2014    1.1819   -1.8161 H   0  0  0  0  0  0  0  0  0  0  0  0
    1.2944   -0.2930   -2.3573 H   0  0  0  0  0  0  0  0  0  0  0  0
    2.8052   -1.0295   -1.8128 H   0  0  0  0  0  0  0  0  0  0  0  0
    0.9634   -2.1445   -0.8399 H   0  0  0  0  0  0  0  0  0  0  0  0
    1.6266   -2.3058    1.3526 H   0  0  0  0  0  0  0  0  0  0  0  0
    2.3184   -0.6754    1.4731 H   0  0  0  0  0  0  0  0  0  0  0  0
    3.0854   -1.9513    0.3855 H   0  0  0  0  0  0  0  0  0  0  0  0
    0.0410    0.3625    0.5815 H   0  0  0  0  0  0  0  0  0  0  0  0
   -3.3245   -1.3520    0.3670 H   0  0  0  0  0  0  0  0  0  0  0  0
   -3.9686    0.8716   -0.0910 H   0  0  0  0  0  0  0  0  0  0  0  0
   -2.5188    0.9240   -1.2489 H   0  0  0  0  0  0  0  0  0  0  0  0
   -2.5082    2.2238    1.2107 H   0  0  0  0  0  0  0  0  0  0  0  0
   -1.4525   -0.1791    2.2426 H   0  0  0  0  0  0  0  0  0  0  0  0
   -3.3041    0.1728    2.1845 H   0  0  0  0  0  0  0  0  0  0  0  0
  1  2  1  0
  2  3  1  0
  3  4  1  0
  4  5  1  0
  4  6  1  0
  6  7  1  0
  7  8  2  0
  7  9  1  0
  9 10  1  0
 10 11  1  0
 11 12  1  0
 12  9  1  0
  1 13  1  0
  1 14  1  0
  1 15  1  0
  2 16  1  0
  3 17  1  0
  3 18  1  0
  4 19  1  6
  5 20  1  0
  5 21  1  0
  5 22  1  0
  6 23  1  0
  9 24  1  0
 10 25  1  0
 10 26  1  0
 11 27  1  0
 12 28  1  0
 12 29  1  0
M  END
$$$$

     RDKit          3D

 29 29  0  0  0  0  0  0  0  0999 V2000
    4.1840    0.1547    0.2982 C   0  0  0  0  0  0  0  0  0  0  0  0
    3.2578   -0.6406    1.0158 N   0  0  0  0  0  0  0  0  0  0  0  0
    2.0025   -0.8838    0.3914 C   0  0  0  0  0  0  0  0  0  0  0  0
    1.0960    0.2914    0.2849 C   0  0  1  0  0  0  0  0  0  0  0  0
    1.6076    1.4546   -0.5003 C   0  0  0  0  0  0  0  0  0  0  0  0
   -0.1369   -0.1568   -0.3508 N   0  0  0  0  0  0  0  0  0  0  0  0
   -1.3516   -0.1283    0.3643 C   0  0  0  0  0  0  0  0  0  0  0  0
   -1.3490    0.2880    1.5507 O   0  0  0  0  0  0  0  0  0  0  0  0
   -2.6019   -0.5699   -0.2419 C   0  0  0  0  0  0  0  0  0  0  0  0
   -3.8225   -0.4941    0.6831 C   0  0  0  0  0  0  0  0  0  0  0  0
   -4.5932   -0.2261   -0.5380 N   0  0  0  0  0  0  0  0  0  0  0  0
   -3.3990    0.5191   -0.9782 C   0  0  0  0  0  0  0  0  0  0  0  0
    4.0767    1.2455    0.4027 H   0  0  0  0  0  0  0  0  0  0  0  0
    5.2272   -0.0515    0.6869 H   0  0  0  0  0  0  0  0  0  0  0  0
    4.2108   -0.1340   -0.7794 H   0  0  0  0  0  0  0  0  0  0  0  0
    3.6919   -1.5454    1.3460 H   0  0  0  0  0  0  0  0  0  0  0  0
    1.5075   -1.7017    0.9999 H   0  0  0  0  0  0  0  0  0  0  0  0
    2.2155   -1.3553   -0.6088 H   0  0  0  0  0  0  0  0  0  0  0  0
    0.8292    0.6078    1.3329 H   0  0  0  0  0  0  0  0  0  0  0  0
    2.3618    1.2385   -1.2519 H   0  0  0  0  0  0  0  0  0  0  0  0
    0.7357    1.9062   -1.0582 H   0  0  0  0  0  0  0  0  0  0  0  0
    1.9413    2.2263    0.2341 H   0  0  0  0  0  0  0  0  0  0  0  0
   -0.0710   -0.4882   -1.3310 H   0  0  0  0  0  0  0  0  0  0  0  0
   -2.5938   -1.4720   -0.8643 H   0  0  0  0  0  0  0  0  0  0  0  0
   -4.0686   -1.4149    1.2023 H   0  0  0  0  0  0  0  0  0  0  0  0
   -3.7455    0.4289    1.2769 H   0  0  0  0  0  0  0  0  0  0  0  0
   -4.5868   -1.1309   -1.0971 H   0  0  0  0  0  0  0  0  0  0  0  0
   -3.3812    1.4731   -0.4166 H   0  0  0  0  0  0  0  0  0  0  0  0
   -3.2447    0.5591   -2.0536 H   0  0  0  0  0  0  0  0  0  0  0  0
  1  2  1  0
  2  3  1  0
  3  4  1  0
  4  5  1  0
  4  6  1  0
  6  7  1  0
  7  8  2  0
  7  9  1  0
  9 10  1  0
 10 11  1  0
 11 12  1  0
 12  9  1  0
  1 13  1  0
  1 14  1  0
  1 15  1  0
  2 16  1  0
  3 17  1  0
  3 18  1  0
  4 19  1  1
  5 20  1  0
  5 21  1  0
  5 22  1  0
  6 23  1  0
  9 24  1  0
 10 25  1  0
 10 26  1  0
 11 27  1  0
 12 28  1  0
 12 29  1  0
M  END
$$$$

     RDKit          3D

 29 29  0  0  0  0  0  0  0  0999 V2000
   -3.7098    1.0764    0.6183 C   0  0  0  0  0  0  0  0  0  0  0  0
   -3.3793    0.6281   -0.7135 N   0  0  0  0  0  0  0  0  0  0  0  0
   -1.9642    0.6937   -0.9856 C   0  0  0  0  0  0  0  0  0  0  0  0
   -1.1676   -0.2907   -0.1929 C   0  0  1  0  0  0  0  0  0  0  0  0
   -1.5855   -1.7288   -0.4758 C   0  0  0  0  0  0  0  0  0  0  0  0
    0.2601   -0.1609   -0.3904 N   0  0  0  0  0  0  0  0  0  0  0  0
    1.1745    0.0731    0.6635 C   0  0  0  0  0  0  0  0  0  0  0  0
    0.6769    0.1680    1.8232 O   0  0  0  0  0  0  0  0  0  0  0  0
    2.6181    0.2104    0.5138 C   0  0  0  0  0  0  0  0  0  0  0  0
    3.3396   -0.9618   -0.1195 C   0  0  0  0  0  0  0  0  0  0  0  0
    4.2923    0.0096   -0.6342 N   0  0  0  0  0  0  0  0  0  0  0  0
    3.1661    0.9606   -0.6502 C   0  0  0  0  0  0  0  0  0  0  0  0
   -4.5126    1.8510    0.6088 H   0  0  0  0  0  0  0  0  0  0  0  0
   -2.8569    1.5324    1.1593 H   0  0  0  0  0  0  0  0  0  0  0  0
   -4.0806    0.2285    1.2122 H   0  0  0  0  0  0  0  0  0  0  0  0
   -3.8009   -0.2930   -0.9553 H   0  0  0  0  0  0  0  0  0  0  0  0
   -1.6434    1.7348   -0.7981 H   0  0  0  0  0  0  0  0  0  0  0  0
   -1.8268    0.5086   -2.0784 H   0  0  0  0  0  0  0  0  0  0  0  0
   -1.4423   -0.1422    0.8931 H   0  0  0  0  0  0  0  0  0  0  0  0
   -0.8596   -2.3602    0.1108 H   0  0  0  0  0  0  0  0  0  0  0  0
   -1.4673   -2.0164   -1.5234 H   0  0  0  0  0  0  0  0  0  0  0  0
   -2.5815   -1.9619   -0.0491 H   0  0  0  0  0  0  0  0  0  0  0  0
    0.6281   -0.2453   -1.3493 H   0  0  0  0  0  0  0  0  0  0  0  0
    3.1509    0.4851    1.4499 H   0  0  0  0  0  0  0  0  0  0  0  0
    2.8031   -1.4064   -0.9951 H   0  0  0  0  0  0  0  0  0  0  0  0
    3.7891   -1.6853    0.5556 H   0  0  0  0  0  0  0  0  0  0  0  0
    4.9250    0.3062    0.1669 H   0  0  0  0  0  0  0  0  0  0  0  0
    3.4688    2.0122   -0.4790 H   0  0  0  0  0  0  0  0  0  0  0  0
    2.5857    0.7742   -1.5793 H   0  0  0  0  0  0  0  0  0  0  0  0
  1  2  1  0
  2  3  1  0
  3  4  1  0
  4  5  1  0
  4  6  1  0
  6  7  1  0
  7  8  2  0
  7  9  1  0
  9 10  1  0
 10 11  1  0
 11 12  1  0
 12  9  1  0
  1 13  1  0
  1 14  1  0
  1 15  1  0
  2 16  1  0
  3 17  1  0
  3 18  1  0
  4 19  1  1
  5 20  1  0
  5 21  1  0
  5 22  1  0
  6 23  1  0
  9 24  1  0
 10 25  1  0
 10 26  1  0
 11 27  1  0
 12 28  1  0
 12 29  1  0
M  END
$$$$

     RDKit          3D

 29 29  0  0  0  0  0  0  0  0999 V2000
    2.7072    1.4416   -1.4382 C   0  0  0  0  0  0  0  0  0  0  0  0
    2.3883    1.4070   -0.0328 N   0  0  0  0  0  0  0  0  0  0  0  0
    2.4511    0.0790    0.5347 C   0  0  0  0  0  0  0  0  0  0  0  0
    1.3632   -0.8305    0.0133 C   0  0  1  0  0  0  0  0  0  0  0  0
    1.5419   -2.1708    0.6788 C   0  0  0  0  0  0  0  0  0  0  0  0
    0.0530   -0.2549    0.3007 N   0  0  0  0  0  0  0  0  0  0  0  0
   -0.8985    0.0238   -0.7220 C   0  0  0  0  0  0  0  0  0  0  0  0
   -0.5729   -0.2433   -1.8917 O   0  0  0  0  0  0  0  0  0  0  0  0
   -2.2342    0.6160   -0.3776 C   0  0  0  0  0  0  0  0  0  0  0  0
   -3.0705   -0.2185    0.5417 C   0  0  0  0  0  0  0  0  0  0  0  0
   -4.0720   -0.2912   -0.5156 N   0  0  0  0  0  0  0  0  0  0  0  0
   -3.2539    0.4328   -1.4709 C   0  0  0  0  0  0  0  0  0  0  0  0
    1.8411    1.2907   -2.0983 H   0  0  0  0  0  0  0  0  0  0  0  0
    3.4929    0.7462   -1.7408 H   0  0  0  0  0  0  0  0  0  0  0  0
    3.0890    2.4781   -1.6621 H   0  0  0  0  0  0  0  0  0  0  0  0
    3.1207    1.9713    0.4710 H   0  0  0  0  0  0  0  0  0  0  0  0
    3.4462   -0.3955    0.4225 H   0  0  0  0  0  0  0  0  0  0  0  0
    2.2818    0.1882    1.6256 H   0  0  0  0  0  0  0  0  0  0  0  0
    1.4072   -0.9779   -1.0703 H   0  0  0  0  0  0  0  0  0  0  0  0
    0.9570   -2.2039    1.6443 H   0  0  0  0  0  0  0  0  0  0  0  0
    2.6052   -2.2858    1.0046 H   0  0  0  0  0  0  0  0  0  0  0  0
    1.3236   -3.0264    0.0337 H   0  0  0  0  0  0  0  0  0  0  0  0
   -0.2074   -0.0347    1.2903 H   0  0  0  0  0  0  0  0  0  0  0  0
   -2.0982    1.6506   -0.0087 H   0  0  0  0  0  0  0  0  0  0  0  0
   -2.6104   -1.1831    0.8091 H   0  0  0  0  0  0  0  0  0  0  0  0
   -3.4504    0.3424    1.4321 H   0  0  0  0  0  0  0  0  0  0  0  0
   -4.9593    0.2201   -0.2977 H   0  0  0  0  0  0  0  0  0  0  0  0
   -3.7142    1.3833   -1.7806 H   0  0  0  0  0  0  0  0  0  0  0  0
   -2.9273   -0.1547   -2.3454 H   0  0  0  0  0  0  0  0  0  0  0  0
  1  2  1  0
  2  3  1  0
  3  4  1  0
  4  5  1  0
  4  6  1  0
  6  7  1  0
  7  8  2  0
  7  9  1  0
  9 10  1  0
 10 11  1  0
 11 12  1  0
 12  9  1  0
  1 13  1  0
  1 14  1  0
  1 15  1  0
  2 16  1  0
  3 17  1  0
  3 18  1  0
  4 19  1  6
  5 20  1  0
  5 21  1  0
  5 22  1  0
  6 23  1  0
  9 24  1  0
 10 25  1  0
 10 26  1  0
 11 27  1  0
 12 28  1  0
 12 29  1  0
M  END
$$$$
