
     RDKit          3D

 21 20  0  0  0  0  0  0  0  0999 V2000
    1.3658   -1.3746    0.7691 O   0  0  0  0  0  0  0  0  0  0  0  0
    1.9451   -0.2720    0.6164 C   0  0  0  0  0  0  0  0  0  0  0  0
    3.4134   -0.2644    0.3242 C   0  0  0  0  0  0  0  0  0  0  0  0
    3.9402   -1.5460    0.1914 O   0  0  0  0  0  0  0  0  0  0  0  0
    1.3321    0.9997    0.6950 N   0  0  0  0  0  0  0  0  0  0  0  0
    0.0254    1.1167    0.9450 O   0  0  0  0  0  0  0  0  0  0  0  0
   -0.8158    0.5468    0.0098 C   0  0  0  0  0  0  0  0  0  0  0  0
   -2.2492    0.7957    0.4425 C   0  0  0  0  0  0  0  0  0  0  0  0
   -3.2476    0.1984   -0.5048 C   0  0  0  0  0  0  0  0  0  0  0  0
   -3.1669    0.6785   -1.8020 O   0  0  0  0  0  0  0  0  0  0  0  0
    3.8670    0.2926    1.1735 H   0  0  0  0  0  0  0  0  0  0  0  0
    3.5964    0.3216   -0.5914 H   0  0  0  0  0  0  0  0  0  0  0  0
    4.3572   -1.6916   -0.6940 H   0  0  0  0  0  0  0  0  0  0  0  0
    1.8955    1.8948    0.5606 H   0  0  0  0  0  0  0  0  0  0  0  0
   -0.6344    0.9865   -0.9954 H   0  0  0  0  0  0  0  0  0  0  0  0
   -0.6057   -0.5423   -0.0398 H   0  0  0  0  0  0  0  0  0  0  0  0
   -2.3698    1.9064    0.4848 H   0  0  0  0  0  0  0  0  0  0  0  0
   -2.3907    0.3185    1.4336 H   0  0  0  0  0  0  0  0  0  0  0  0
   -4.2687    0.4665   -0.1309 H   0  0  0  0  0  0  0  0  0  0  0  0
   -3.1658   -0.9019   -0.4565 H   0  0  0  0  0  0  0  0  0  0  0  0
   -2.8233   -0.0112   -2.4311 H   0  0  0  0  0  0  0  0  0  0  0  0
  1  2  2  0
  2  3  1  0
  3  4  1  0
  2  5  1  0
  5  6  1  0
  6  7  1  0
  7  8  1  0
  8  9  1  0
  9 10  1  0
  3 11  1  0
  3 12  1  0
  4 13  1  0
  5 14  1  0
  7 15  1  0
  7 16  1  0
  8 17  1  0
  8 18  1  0
  9 19  1  0
  9 20  1  0
 10 21  1  0
M  END
$$$$

     RDKit          3D

 21 20  0  0  0  0  0  0  0  0999 V2000
    1.3441    1.3857    0.3950 O   0  0  0  0  0  0  0  0  0  0  0  0
    2.0033    0.3496    0.2361 C   0  0  0  0  0  0  0  0  0  0  0  0
    3.4781    0.5046    0.0343 C   0  0  0  0  0  0  0  0  0  0  0  0
    4.1126   -0.7133   -0.1036 O   0  0  0  0  0  0  0  0  0  0  0  0
    1.3727   -0.9138    0.2493 N   0  0  0  0  0  0  0  0  0  0  0  0
    0.0917   -1.1539    0.4205 O   0  0  0  0  0  0  0  0  0  0  0  0
   -0.8264   -0.2617   -0.0401 C   0  0  0  0  0  0  0  0  0  0  0  0
   -2.2410   -0.8023    0.2604 C   0  0  0  0  0  0  0  0  0  0  0  0
   -3.2504    0.2014   -0.2516 C   0  0  0  0  0  0  0  0  0  0  0  0
   -3.0163    1.4087    0.4223 O   0  0  0  0  0  0  0  0  0  0  0  0
    3.8782    1.0226    0.9257 H   0  0  0  0  0  0  0  0  0  0  0  0
    3.6196    1.1497   -0.8636 H   0  0  0  0  0  0  0  0  0  0  0  0
    4.9823   -0.6523    0.3521 H   0  0  0  0  0  0  0  0  0  0  0  0
    2.0177   -1.7664    0.1039 H   0  0  0  0  0  0  0  0  0  0  0  0
   -0.8028   -0.0415   -1.1055 H   0  0  0  0  0  0  0  0  0  0  0  0
   -0.8063    0.6991    0.5627 H   0  0  0  0  0  0  0  0  0  0  0  0
   -2.3713   -0.8540    1.3602 H   0  0  0  0  0  0  0  0  0  0  0  0
   -2.3939   -1.8090   -0.1772 H   0  0  0  0  0  0  0  0  0  0  0  0
   -3.1941    0.3450   -1.3381 H   0  0  0  0  0  0  0  0  0  0  0  0
   -4.2768   -0.1397    0.0379 H   0  0  0  0  0  0  0  0  0  0  0  0
   -3.7211    2.0416    0.0926 H   0  0  0  0  0  0  0  0  0  0  0  0
  1  2  2  0
  2  3  1  0
  3  4  1  0
  2  5  1  0
  5  6  1  0
  6  7  1  0
  7  8  1  0
  8  9  1  0
  9 10  1  0
  3 11  1  0
  3 12  1  0
  4 13  1  0
  5 14  1  0
  7 15  1  0
  7 16  1  0
  8 17  1  0
  8 18  1  0
  9 19  1  0
  9 20  1  0
 10 21  1  0
M  END
$$$$

     RDKit          3D

 21 20  0  0  0  0  0  0  0  0999 V2000
   -1.1670    1.0882   -0.0157 O   0  0  0  0  0  0  0  0  0  0  0  0
   -1.9626    0.1902    0.3153 C   0  0  0  0  0  0  0  0  0  0  0  0
   -3.3996    0.5429    0.2844 C   0  0  0  0  0  0  0  0  0  0  0  0
   -3.7420    0.9143   -0.9872 O   0  0  0  0  0  0  0  0  0  0  0  0
   -1.4768   -1.1238    0.6875 N   0  0  0  0  0  0  0  0  0  0  0  0
   -0.1598   -1.1025    0.9489 O   0  0  0  0  0  0  0  0  0  0  0  0
    0.6745   -0.9085   -0.1061 C   0  0  0  0  0  0  0  0  0  0  0  0
    1.6834    0.1830    0.2229 C   0  0  0  0  0  0  0  0  0  0  0  0
    3.1124   -0.2329    0.0713 C   0  0  0  0  0  0  0  0  0  0  0  0
    3.7982    0.5405   -0.8727 O   0  0  0  0  0  0  0  0  0  0  0  0
   -4.0435   -0.1564    0.8009 H   0  0  0  0  0  0  0  0  0  0  0  0
   -3.4444    1.5066    0.8976 H   0  0  0  0  0  0  0  0  0  0  0  0
   -3.0116    1.4750   -1.3360 H   0  0  0  0  0  0  0  0  0  0  0  0
   -2.1424   -1.8745    0.6968 H   0  0  0  0  0  0  0  0  0  0  0  0
    0.1251   -0.7803   -1.0206 H   0  0  0  0  0  0  0  0  0  0  0  0
    1.3095   -1.8399   -0.2053 H   0  0  0  0  0  0  0  0  0  0  0  0
    1.5378    1.0331   -0.5199 H   0  0  0  0  0  0  0  0  0  0  0  0
    1.4579    0.6598    1.2031 H   0  0  0  0  0  0  0  0  0  0  0  0
    3.6137   -0.1800    1.0712 H   0  0  0  0  0  0  0  0  0  0  0  0
    3.1168   -1.3011   -0.2804 H   0  0  0  0  0  0  0  0  0  0  0  0
    4.1204    1.3663   -0.4460 H   0  0  0  0  0  0  0  0  0  0  0  0
  1  2  2  0
  2  3  1  0
  3  4  1  0
  2  5  1  0
  5  6  1  0
  6  7  1  0
  7  8  1  0
  8  9  1  0
  9 10  1  0
  3 11  1  0
  3 12  1  0
  4 13  1  0
  5 14  1  0
  7 15  1  0
  7 16  1  0
  8 17  1  0
  8 18  1  0
  9 19  1  0
  9 20  1  0
 10 21  1  0
M  END
$$$$

     RDKit          3D

 21 20  0  0  0  0  0  0  0  0999 V2000
   -1.5421    1.4138    0.6479 O   0  0  0  0  0  0  0  0  0  0  0  0
   -1.9291    0.2645    0.3516 C   0  0  0  0  0  0  0  0  0  0  0  0
   -3.3463    0.0458   -0.0479 C   0  0  0  0  0  0  0  0  0  0  0  0
   -4.0951    1.2172   -0.0584 O   0  0  0  0  0  0  0  0  0  0  0  0
   -1.0856   -0.8565    0.3771 N   0  0  0  0  0  0  0  0  0  0  0  0
    0.2030   -0.7558    0.7220 O   0  0  0  0  0  0  0  0  0  0  0  0
    0.9608   -0.8872   -0.4502 C   0  0  0  0  0  0  0  0  0  0  0  0
    2.4557   -0.8168   -0.1795 C   0  0  0  0  0  0  0  0  0  0  0  0
    2.7704    0.5255    0.4507 C   0  0  0  0  0  0  0  0  0  0  0  0
    2.3690    1.4982   -0.4896 O   0  0  0  0  0  0  0  0  0  0  0  0
   -3.8483   -0.6361    0.6731 H   0  0  0  0  0  0  0  0  0  0  0  0
   -3.3838   -0.4172   -1.0592 H   0  0  0  0  0  0  0  0  0  0  0  0
   -3.4777    1.9671    0.1533 H   0  0  0  0  0  0  0  0  0  0  0  0
   -1.4301   -1.8181    0.1243 H   0  0  0  0  0  0  0  0  0  0  0  0
    0.6690   -1.7707   -1.0516 H   0  0  0  0  0  0  0  0  0  0  0  0
    0.6533   -0.0046   -1.0851 H   0  0  0  0  0  0  0  0  0  0  0  0
    2.9791   -0.9496   -1.1621 H   0  0  0  0  0  0  0  0  0  0  0  0
    2.7105   -1.6721    0.4961 H   0  0  0  0  0  0  0  0  0  0  0  0
    2.1169    0.6237    1.3479 H   0  0  0  0  0  0  0  0  0  0  0  0
    3.8458    0.6208    0.6805 H   0  0  0  0  0  0  0  0  0  0  0  0
    2.4043    2.4080   -0.1094 H   0  0  0  0  0  0  0  0  0  0  0  0
  1  2  2  0
  2  3  1  0
  3  4  1  0
  2  5  1  0
  5  6  1  0
  6  7  1  0
  7  8  1  0
  8  9  1  0
  9 10  1  0
  3 11  1  0
  3 12  1  0
  4 13  1  0
  5 14  1  0
  7 15  1  0
  7 16  1  0
  8 17  1  0
  8 18  1  0
  9 19  1  0
  9 20  1  0
 10 21  1  0
M  END
$$$$

     RDKit          3D

 21 20  0  0  0  0  0  0  0  0999 V2000
    1.1632   -0.4047   -1.4409 O   0  0  0  0  0  0  0  0  0  0  0  0
    1.9191   -0.1343   -0.4736 C   0  0  0  0  0  0  0  0  0  0  0  0
    3.3925   -0.2904   -0.6073 C   0  0  0  0  0  0  0  0  0  0  0  0
    4.0574    0.0532    0.5612 O   0  0  0  0  0  0  0  0  0  0  0  0
    1.3019    0.3152    0.7197 N   0  0  0  0  0  0  0  0  0  0  0  0
    0.0117    0.4912    0.9492 O   0  0  0  0  0  0  0  0  0  0  0  0
   -0.8608    0.1793   -0.0567 C   0  0  0  0  0  0  0  0  0  0  0  0
   -2.2738    0.4816    0.4679 C   0  0  0  0  0  0  0  0  0  0  0  0
   -3.3102    0.1660   -0.5929 C   0  0  0  0  0  0  0  0  0  0  0  0
   -3.2895   -1.1563   -0.9810 O   0  0  0  0  0  0  0  0  0  0  0  0
    3.7352    0.4125   -1.3915 H   0  0  0  0  0  0  0  0  0  0  0  0
    3.7061   -1.2977   -0.9079 H   0  0  0  0  0  0  0  0  0  0  0  0
    4.9626   -0.2931    0.6064 H   0  0  0  0  0  0  0  0  0  0  0  0
    1.9594    0.5349    1.5157 H   0  0  0  0  0  0  0  0  0  0  0  0
   -0.7033    0.8873   -0.8973 H   0  0  0  0  0  0  0  0  0  0  0  0
   -0.8347   -0.8869   -0.3680 H   0  0  0  0  0  0  0  0  0  0  0  0
   -2.4290   -0.1400    1.3612 H   0  0  0  0  0  0  0  0  0  0  0  0
   -2.3034    1.5550    0.7023 H   0  0  0  0  0  0  0  0  0  0  0  0
   -3.1063    0.8345   -1.4543 H   0  0  0  0  0  0  0  0  0  0  0  0
   -4.3199    0.3785   -0.1780 H   0  0  0  0  0  0  0  0  0  0  0  0
   -2.7783   -1.6858   -0.3146 H   0  0  0  0  0  0  0  0  0  0  0  0
  1  2  2  0
  2  3  1  0
  3  4  1  0
  2  5  1  0
  5  6  1  0
  6  7  1  0
  7  8  1  0
  8  9  1  0
  9 10  1  0
  3 11  1  0
  3 12  1  0
  4 13  1  0
  5 14  1  0
  7 15  1  0
  7 16  1  0
  8 17  1  0
  8 18  1  0
  9 19  1  0
  9 20  1  0
 10 21  1  0
M  END
$$$$

     RDKit          3D

 21 20  0  0  0  0  0  0  0  0999 V2000
   -2.7052   -1.0989    1.0924 O   0  0  0  0  0  0  0  0  0  0  0  0
   -2.5912   -0.3041    0.1132 C   0  0  0  0  0  0  0  0  0  0  0  0
   -3.8085    0.1893   -0.5881 C   0  0  0  0  0  0  0  0  0  0  0  0
   -4.9253   -0.3672    0.0199 O   0  0  0  0  0  0  0  0  0  0  0  0
   -1.2781    0.0741   -0.2613 N   0  0  0  0  0  0  0  0  0  0  0  0
   -0.1607   -0.3666    0.3683 O   0  0  0  0  0  0  0  0  0  0  0  0
    0.9857    0.2018   -0.1243 C   0  0  0  0  0  0  0  0  0  0  0  0
    2.1541   -0.3670    0.6566 C   0  0  0  0  0  0  0  0  0  0  0  0
    3.4253    0.2587    0.1158 C   0  0  0  0  0  0  0  0  0  0  0  0
    4.5457   -0.2395    0.8095 O   0  0  0  0  0  0  0  0  0  0  0  0
   -3.7696   -0.0898   -1.6719 H   0  0  0  0  0  0  0  0  0  0  0  0
   -3.8526    1.2914   -0.5516 H   0  0  0  0  0  0  0  0  0  0  0  0
   -4.8608   -1.3565    0.0763 H   0  0  0  0  0  0  0  0  0  0  0  0
   -1.2197    0.7428   -1.0870 H   0  0  0  0  0  0  0  0  0  0  0  0
    1.1217   -0.0639   -1.1877 H   0  0  0  0  0  0  0  0  0  0  0  0
    0.9589    1.2925    0.0406 H   0  0  0  0  0  0  0  0  0  0  0  0
    2.2589   -1.4591    0.4888 H   0  0  0  0  0  0  0  0  0  0  0  0
    2.0399   -0.2343    1.7449 H   0  0  0  0  0  0  0  0  0  0  0  0
    3.4718    0.0311   -0.9583 H   0  0  0  0  0  0  0  0  0  0  0  0
    3.3279    1.3586    0.2383 H   0  0  0  0  0  0  0  0  0  0  0  0
    4.8814    0.5066    1.3697 H   0  0  0  0  0  0  0  0  0  0  0  0
  1  2  2  0
  2  3  1  0
  3  4  1  0
  2  5  1  0
  5  6  1  0
  6  7  1  0
  7  8  1  0
  8  9  1  0
  9 10  1  0
  3 11  1  0
  3 12  1  0
  4 13  1  0
  5 14  1  0
  7 15  1  0
  7 16  1  0
  8 17  1  0
  8 18  1  0
  9 19  1  0
  9 20  1  0
 10 21  1  0
M  END
$$$$

     RDKit          3D

 21 20  0  0  0  0  0  0  0  0999 V2000
    1.8155   -1.6788   -0.7042 O   0  0  0  0  0  0  0  0  0  0  0  0
    2.1335   -0.5291   -0.3328 C   0  0  0  0  0  0  0  0  0  0  0  0
    3.5601   -0.0946   -0.5017 C   0  0  0  0  0  0  0  0  0  0  0  0
    3.7351    1.0669    0.2335 O   0  0  0  0  0  0  0  0  0  0  0  0
    1.2157    0.3633    0.2241 N   0  0  0  0  0  0  0  0  0  0  0  0
   -0.0732    0.0980    0.4227 O   0  0  0  0  0  0  0  0  0  0  0  0
   -0.7279   -0.5198   -0.6046 C   0  0  0  0  0  0  0  0  0  0  0  0
   -2.1928   -0.6473   -0.1875 C   0  0  0  0  0  0  0  0  0  0  0  0
   -2.7976    0.7254    0.0461 C   0  0  0  0  0  0  0  0  0  0  0  0
   -4.1388    0.5320    0.4206 O   0  0  0  0  0  0  0  0  0  0  0  0
    3.6267    0.1425   -1.6190 H   0  0  0  0  0  0  0  0  0  0  0  0
    4.2895   -0.8624   -0.1968 H   0  0  0  0  0  0  0  0  0  0  0  0
    3.4787    1.8455   -0.3036 H   0  0  0  0  0  0  0  0  0  0  0  0
    1.5791    1.3345    0.5156 H   0  0  0  0  0  0  0  0  0  0  0  0
   -0.6126   -0.0317   -1.5767 H   0  0  0  0  0  0  0  0  0  0  0  0
   -0.4161   -1.5847   -0.7642 H   0  0  0  0  0  0  0  0  0  0  0  0
   -2.7887   -1.1635   -0.9378 H   0  0  0  0  0  0  0  0  0  0  0  0
   -2.1787   -1.1834    0.7869 H   0  0  0  0  0  0  0  0  0  0  0  0
   -2.8342    1.3220   -0.8936 H   0  0  0  0  0  0  0  0  0  0  0  0
   -2.3025    1.2843    0.8609 H   0  0  0  0  0  0  0  0  0  0  0  0
   -4.3707   -0.4191    0.5244 H   0  0  0  0  0  0  0  0  0  0  0  0
  1  2  2  0
  2  3  1  0
  3  4  1  0
  2  5  1  0
  5  6  1  0
  6  7  1  0
  7  8  1  0
  8  9  1  0
  9 10  1  0
  3 11  1  0
  3 12  1  0
  4 13  1  0
  5 14  1  0
  7 15  1  0
  7 16  1  0
  8 17  1  0
  8 18  1  0
  9 19  1  0
  9 20  1  0
 10 21  1  0
M  END
$$$$

     RDKit          3D

 21 20  0  0  0  0  0  0  0  0999 V2000
   -1.3662    1.6739   -0.5008 O   0  0  0  0  0  0  0  0  0  0  0  0
   -2.0951    0.7084   -0.1690 C   0  0  0  0  0  0  0  0  0  0  0  0
   -3.5253    0.6601   -0.5803 C   0  0  0  0  0  0  0  0  0  0  0  0
   -4.1654   -0.4660   -0.1103 O   0  0  0  0  0  0  0  0  0  0  0  0
   -1.4963   -0.3252    0.6081 N   0  0  0  0  0  0  0  0  0  0  0  0
   -0.2195   -0.3265    1.0008 O   0  0  0  0  0  0  0  0  0  0  0  0
    0.7308   -0.3242    0.0257 C   0  0  0  0  0  0  0  0  0  0  0  0
    2.0901   -0.3309    0.7278 C   0  0  0  0  0  0  0  0  0  0  0  0
    3.2223   -0.3214   -0.3043 C   0  0  0  0  0  0  0  0  0  0  0  0
    3.1547    0.7975   -1.1020 O   0  0  0  0  0  0  0  0  0  0  0  0
   -4.0855    1.5584   -0.3458 H   0  0  0  0  0  0  0  0  0  0  0  0
   -3.5067    0.5587   -1.7000 H   0  0  0  0  0  0  0  0  0  0  0  0
   -3.7410   -1.2771   -0.4615 H   0  0  0  0  0  0  0  0  0  0  0  0
   -2.1646   -1.1173    0.8587 H   0  0  0  0  0  0  0  0  0  0  0  0
    0.6876    0.6021   -0.5614 H   0  0  0  0  0  0  0  0  0  0  0  0
    0.7105   -1.1813   -0.6783 H   0  0  0  0  0  0  0  0  0  0  0  0
    2.2241    0.5892    1.3318 H   0  0  0  0  0  0  0  0  0  0  0  0
    2.1600   -1.2200    1.3684 H   0  0  0  0  0  0  0  0  0  0  0  0
    3.2282   -1.2797   -0.8934 H   0  0  0  0  0  0  0  0  0  0  0  0
    4.1651   -0.2911    0.2643 H   0  0  0  0  0  0  0  0  0  0  0  0
    3.9919    1.3123   -1.0731 H   0  0  0  0  0  0  0  0  0  0  0  0
  1  2  2  0
  2  3  1  0
  3  4  1  0
  2  5  1  0
  5  6  1  0
  6  7  1  0
  7  8  1  0
  8  9  1  0
  9 10  1  0
  3 11  1  0
  3 12  1  0
  4 13  1  0
  5 14  1  0
  7 15  1  0
  7 16  1  0
  8 17  1  0
  8 18  1  0
  9 19  1  0
  9 20  1  0
 10 21  1  0
M  END
$$$$
