
     RDKit          3D

 23 23  0  0  0  0  0  0  0  0999 V2000
   -2.3324   -0.5829   -1.2593 C   0  0  0  0  0  0  0  0  0  0  0  0
   -1.7874   -0.1378    0.0758 C   0  0  0  0  0  0  0  0  0  0  0  0
   -2.8669    0.2926    0.9391 N   0  0  0  0  0  0  0  0  0  0  0  0
   -0.6642    0.8498    0.0286 C   0  0  0  0  0  0  0  0  0  0  0  0
    0.3094   -0.1815    0.2806 N   0  0  0  0  0  0  0  0  0  0  0  0
    1.7177   -0.3454    0.1764 C   0  0  0  0  0  0  0  0  0  0  0  0
    2.2467   -1.4436    0.5033 O   0  0  0  0  0  0  0  0  0  0  0  0
    2.6163    0.7214   -0.3036 C   0  0  0  0  0  0  0  0  0  0  0  0
    3.9938    0.2750   -0.3046 N   0  0  0  0  0  0  0  0  0  0  0  0
   -0.7755   -1.0389    0.7083 C   0  0  0  0  0  0  0  0  0  0  0  0
   -1.5449   -0.8396   -1.9899 H   0  0  0  0  0  0  0  0  0  0  0  0
   -2.9390    0.2673   -1.6563 H   0  0  0  0  0  0  0  0  0  0  0  0
   -2.9524   -1.4949   -1.1000 H   0  0  0  0  0  0  0  0  0  0  0  0
   -2.8347    1.3523    0.9309 H   0  0  0  0  0  0  0  0  0  0  0  0
   -2.7633   -0.0540    1.9131 H   0  0  0  0  0  0  0  0  0  0  0  0
   -0.5563    1.3546   -0.9616 H   0  0  0  0  0  0  0  0  0  0  0  0
   -0.6893    1.5817    0.8694 H   0  0  0  0  0  0  0  0  0  0  0  0
    2.2756    1.0222   -1.3240 H   0  0  0  0  0  0  0  0  0  0  0  0
    2.5517    1.6348    0.3155 H   0  0  0  0  0  0  0  0  0  0  0  0
    4.0901   -0.7363   -0.5090 H   0  0  0  0  0  0  0  0  0  0  0  0
    4.5014    0.5691    0.5606 H   0  0  0  0  0  0  0  0  0  0  0  0
   -0.7587   -2.0617    0.2826 H   0  0  0  0  0  0  0  0  0  0  0  0
   -0.8376   -1.0042    1.8242 H   0  0  0  0  0  0  0  0  0  0  0  0
  1  2  1  0
  2  3  1  0
  2  4  1  0
  4  5  1  0
  5  6  1  0
  6  7  2  0
  6  8  1  0
  8  9  1  0
  5 10  1  0
 10  2  1  0
  1 11  1  0
  1 12  1  0
  1 13  1  0
  3 14  1  0
  3 15  1  0
  4 16  1  0
  4 17  1  0
  8 18  1  0
  8 19  1  0
  9 20  1  0
  9 21  1  0
 10 22  1  0
 10 23  1  0
M  END
$$$$

     RDKit          3D

 23 23  0  0  0  0  0  0  0  0999 V2000
   -1.9343    1.2306    0.4943 C   0  0  0  0  0  0  0  0  0  0  0  0
   -1.7505   -0.1354   -0.0837 C   0  0  0  0  0  0  0  0  0  0  0  0
   -2.9212   -0.7421   -0.6703 N   0  0  0  0  0  0  0  0  0  0  0  0
   -0.5122   -0.1940   -0.9518 C   0  0  0  0  0  0  0  0  0  0  0  0
    0.2453   -0.4329    0.2738 N   0  0  0  0  0  0  0  0  0  0  0  0
    1.5529   -0.1750    0.7524 C   0  0  0  0  0  0  0  0  0  0  0  0
    1.8734   -0.5367    1.9077 O   0  0  0  0  0  0  0  0  0  0  0  0
    2.5539    0.5141   -0.0829 C   0  0  0  0  0  0  0  0  0  0  0  0
    3.7963    0.6610    0.6116 N   0  0  0  0  0  0  0  0  0  0  0  0
   -0.9483   -1.0644    0.8049 C   0  0  0  0  0  0  0  0  0  0  0  0
   -2.9108    1.3780    0.9934 H   0  0  0  0  0  0  0  0  0  0  0  0
   -1.8648    2.0184   -0.3081 H   0  0  0  0  0  0  0  0  0  0  0  0
   -1.0832    1.4384    1.1779 H   0  0  0  0  0  0  0  0  0  0  0  0
   -2.6199   -1.7146   -0.9759 H   0  0  0  0  0  0  0  0  0  0  0  0
   -3.6101   -0.8887    0.0864 H   0  0  0  0  0  0  0  0  0  0  0  0
   -0.2810    0.7593   -1.4621 H   0  0  0  0  0  0  0  0  0  0  0  0
   -0.5588   -1.0941   -1.5917 H   0  0  0  0  0  0  0  0  0  0  0  0
    2.7147   -0.0964   -0.9994 H   0  0  0  0  0  0  0  0  0  0  0  0
    2.1054    1.4935   -0.3803 H   0  0  0  0  0  0  0  0  0  0  0  0
    4.5009   -0.0099    0.2326 H   0  0  0  0  0  0  0  0  0  0  0  0
    3.7365    0.6224    1.6338 H   0  0  0  0  0  0  0  0  0  0  0  0
   -1.1049   -0.9142    1.8957 H   0  0  0  0  0  0  0  0  0  0  0  0
   -0.9792   -2.1173    0.4589 H   0  0  0  0  0  0  0  0  0  0  0  0
  1  2  1  0
  2  3  1  0
  2  4  1  0
  4  5  1  0
  5  6  1  0
  6  7  2  0
  6  8  1  0
  8  9  1  0
  5 10  1  0
 10  2  1  0
  1 11  1  0
  1 12  1  0
  1 13  1  0
  3 14  1  0
  3 15  1  0
  4 16  1  0
  4 17  1  0
  8 18  1  0
  8 19  1  0
  9 20  1  0
  9 21  1  0
 10 22  1  0
 10 23  1  0
M  END
$$$$

     RDKit          3D

 23 23  0  0  0  0  0  0  0  0999 V2000
   -2.5402    0.9190   -0.5968 C   0  0  0  0  0  0  0  0  0  0  0  0
   -1.7592   -0.1066    0.1783 C   0  0  0  0  0  0  0  0  0  0  0  0
   -2.6328   -1.1668    0.6506 N   0  0  0  0  0  0  0  0  0  0  0  0
   -0.4803   -0.5625   -0.4597 C   0  0  0  0  0  0  0  0  0  0  0  0
    0.2916    0.1261    0.5595 N   0  0  0  0  0  0  0  0  0  0  0  0
    1.6694    0.3680    0.8002 C   0  0  0  0  0  0  0  0  0  0  0  0
    2.0508    1.0209    1.8037 O   0  0  0  0  0  0  0  0  0  0  0  0
    2.6883   -0.1560   -0.1456 C   0  0  0  0  0  0  0  0  0  0  0  0
    4.0264    0.1920    0.2689 N   0  0  0  0  0  0  0  0  0  0  0  0
   -0.9318    0.4958    1.2802 C   0  0  0  0  0  0  0  0  0  0  0  0
   -2.3789    1.9367   -0.1765 H   0  0  0  0  0  0  0  0  0  0  0  0
   -2.2063    0.9753   -1.6618 H   0  0  0  0  0  0  0  0  0  0  0  0
   -3.6428    0.7416   -0.5340 H   0  0  0  0  0  0  0  0  0  0  0  0
   -2.0228   -1.9929    0.8707 H   0  0  0  0  0  0  0  0  0  0  0  0
   -3.2507   -1.4223   -0.1497 H   0  0  0  0  0  0  0  0  0  0  0  0
   -0.3793   -1.6688   -0.3468 H   0  0  0  0  0  0  0  0  0  0  0  0
   -0.3104   -0.1872   -1.4967 H   0  0  0  0  0  0  0  0  0  0  0  0
    2.6195   -1.2773   -0.2168 H   0  0  0  0  0  0  0  0  0  0  0  0
    2.5347    0.2730   -1.1595 H   0  0  0  0  0  0  0  0  0  0  0  0
    3.9858    0.4576    1.2755 H   0  0  0  0  0  0  0  0  0  0  0  0
    4.7284   -0.5328    0.0607 H   0  0  0  0  0  0  0  0  0  0  0  0
   -1.0152    1.6149    1.3465 H   0  0  0  0  0  0  0  0  0  0  0  0
   -1.0442   -0.0478    2.2224 H   0  0  0  0  0  0  0  0  0  0  0  0
  1  2  1  0
  2  3  1  0
  2  4  1  0
  4  5  1  0
  5  6  1  0
  6  7  2  0
  6  8  1  0
  8  9  1  0
  5 10  1  0
 10  2  1  0
  1 11  1  0
  1 12  1  0
  1 13  1  0
  3 14  1  0
  3 15  1  0
  4 16  1  0
  4 17  1  0
  8 18  1  0
  8 19  1  0
  9 20  1  0
  9 21  1  0
 10 22  1  0
 10 23  1  0
M  END
$$$$

     RDKit          3D

 23 23  0  0  0  0  0  0  0  0999 V2000
   -1.9016   -1.4011    0.0866 C   0  0  0  0  0  0  0  0  0  0  0  0
   -1.7031    0.0531   -0.2395 C   0  0  0  0  0  0  0  0  0  0  0  0
   -2.8651    0.7128   -0.8009 N   0  0  0  0  0  0  0  0  0  0  0  0
   -0.4679    0.3752   -1.0460 C   0  0  0  0  0  0  0  0  0  0  0  0
    0.2639    0.4596    0.1990 N   0  0  0  0  0  0  0  0  0  0  0  0
    1.6233    0.2629    0.5453 C   0  0  0  0  0  0  0  0  0  0  0  0
    2.0364    0.3984    1.7366 O   0  0  0  0  0  0  0  0  0  0  0  0
    2.6061   -0.1122   -0.4991 C   0  0  0  0  0  0  0  0  0  0  0  0
    3.8964   -0.2526    0.0868 N   0  0  0  0  0  0  0  0  0  0  0  0
   -0.9876    0.8141    0.8443 C   0  0  0  0  0  0  0  0  0  0  0  0
   -2.0861   -1.5523    1.1616 H   0  0  0  0  0  0  0  0  0  0  0  0
   -1.0138   -1.9835   -0.2630 H   0  0  0  0  0  0  0  0  0  0  0  0
   -2.7816   -1.8169   -0.4541 H   0  0  0  0  0  0  0  0  0  0  0  0
   -3.4535   -0.0193   -1.2357 H   0  0  0  0  0  0  0  0  0  0  0  0
   -3.4070    1.2513   -0.0703 H   0  0  0  0  0  0  0  0  0  0  0  0
   -0.5500    1.3651   -1.5377 H   0  0  0  0  0  0  0  0  0  0  0  0
   -0.1688   -0.4654   -1.7063 H   0  0  0  0  0  0  0  0  0  0  0  0
    2.2229   -1.0340   -0.9818 H   0  0  0  0  0  0  0  0  0  0  0  0
    2.6316    0.6558   -1.3247 H   0  0  0  0  0  0  0  0  0  0  0  0
    3.8994   -0.5701    1.0677 H   0  0  0  0  0  0  0  0  0  0  0  0
    4.5414    0.5459   -0.0969 H   0  0  0  0  0  0  0  0  0  0  0  0
   -1.1369    0.3968    1.8524 H   0  0  0  0  0  0  0  0  0  0  0  0
   -1.1986    1.9166    0.8510 H   0  0  0  0  0  0  0  0  0  0  0  0
  1  2  1  0
  2  3  1  0
  2  4  1  0
  4  5  1  0
  5  6  1  0
  6  7  2  0
  6  8  1  0
  8  9  1  0
  5 10  1  0
 10  2  1  0
  1 11  1  0
  1 12  1  0
  1 13  1  0
  3 14  1  0
  3 15  1  0
  4 16  1  0
  4 17  1  0
  8 18  1  0
  8 19  1  0
  9 20  1  0
  9 21  1  0
 10 22  1  0
 10 23  1  0
M  END
$$$$

     RDKit          3D

 23 23  0  0  0  0  0  0  0  0999 V2000
   -2.3169    0.9894   -0.2748 C   0  0  0  0  0  0  0  0  0  0  0  0
   -1.7391   -0.3609    0.0091 C   0  0  0  0  0  0  0  0  0  0  0  0
   -2.7476   -1.3038    0.3652 N   0  0  0  0  0  0  0  0  0  0  0  0
   -0.8102   -0.8376   -1.0960 C   0  0  0  0  0  0  0  0  0  0  0  0
    0.3142   -0.3194   -0.3623 N   0  0  0  0  0  0  0  0  0  0  0  0
    1.6319    0.0579   -0.6936 C   0  0  0  0  0  0  0  0  0  0  0  0
    2.0882   -0.0168   -1.8711 O   0  0  0  0  0  0  0  0  0  0  0  0
    2.5941    0.5783    0.3324 C   0  0  0  0  0  0  0  0  0  0  0  0
    3.8705    0.9001   -0.2141 N   0  0  0  0  0  0  0  0  0  0  0  0
   -0.4850   -0.3558    0.8349 C   0  0  0  0  0  0  0  0  0  0  0  0
   -3.2379    0.8346   -0.8862 H   0  0  0  0  0  0  0  0  0  0  0  0
   -1.5470    1.5700   -0.8338 H   0  0  0  0  0  0  0  0  0  0  0  0
   -2.5407    1.5447    0.6638 H   0  0  0  0  0  0  0  0  0  0  0  0
   -3.0488   -1.2752    1.3578 H   0  0  0  0  0  0  0  0  0  0  0  0
   -2.5880   -2.2717    0.0294 H   0  0  0  0  0  0  0  0  0  0  0  0
   -0.7168   -1.9520   -1.1632 H   0  0  0  0  0  0  0  0  0  0  0  0
   -1.0334   -0.3304   -2.0548 H   0  0  0  0  0  0  0  0  0  0  0  0
    2.6420   -0.1443    1.1621 H   0  0  0  0  0  0  0  0  0  0  0  0
    2.1170    1.5282    0.7124 H   0  0  0  0  0  0  0  0  0  0  0  0
    3.9540    1.8361   -0.6213 H   0  0  0  0  0  0  0  0  0  0  0  0
    4.2524    0.1368   -0.8119 H   0  0  0  0  0  0  0  0  0  0  0  0
   -0.3493   -1.3400    1.3400 H   0  0  0  0  0  0  0  0  0  0  0  0
   -0.3036    0.5317    1.4450 H   0  0  0  0  0  0  0  0  0  0  0  0
  1  2  1  0
  2  3  1  0
  2  4  1  0
  4  5  1  0
  5  6  1  0
  6  7  2  0
  6  8  1  0
  8  9  1  0
  5 10  1  0
 10  2  1  0
  1 11  1  0
  1 12  1  0
  1 13  1  0
  3 14  1  0
  3 15  1  0
  4 16  1  0
  4 17  1  0
  8 18  1  0
  8 19  1  0
  9 20  1  0
  9 21  1  0
 10 22  1  0
 10 23  1  0
M  END
$$$$

     RDKit          3D

 23 23  0  0  0  0  0  0  0  0999 V2000
   -1.8710    1.3724   -0.0253 C   0  0  0  0  0  0  0  0  0  0  0  0
   -1.7524   -0.0401    0.4575 C   0  0  0  0  0  0  0  0  0  0  0  0
   -2.9661   -0.6025    0.9064 N   0  0  0  0  0  0  0  0  0  0  0  0
   -1.0230   -0.9209   -0.5233 C   0  0  0  0  0  0  0  0  0  0  0  0
    0.2216   -0.4645    0.0743 N   0  0  0  0  0  0  0  0  0  0  0  0
    1.5532   -0.3126   -0.3826 C   0  0  0  0  0  0  0  0  0  0  0  0
    1.8535   -0.6071   -1.5570 O   0  0  0  0  0  0  0  0  0  0  0  0
    2.5986    0.1975    0.5322 C   0  0  0  0  0  0  0  0  0  0  0  0
    3.8442    0.2550   -0.1710 N   0  0  0  0  0  0  0  0  0  0  0  0
   -0.5304   -0.2516    1.3054 C   0  0  0  0  0  0  0  0  0  0  0  0
   -0.9413    1.9744    0.1806 H   0  0  0  0  0  0  0  0  0  0  0  0
   -1.9669    1.3888   -1.1417 H   0  0  0  0  0  0  0  0  0  0  0  0
   -2.7009    1.9358    0.4538 H   0  0  0  0  0  0  0  0  0  0  0  0
   -3.6624    0.0355    1.3077 H   0  0  0  0  0  0  0  0  0  0  0  0
   -2.9757   -1.5646    1.2014 H   0  0  0  0  0  0  0  0  0  0  0  0
   -1.1899   -0.5871   -1.5570 H   0  0  0  0  0  0  0  0  0  0  0  0
   -1.2402   -1.9849   -0.3848 H   0  0  0  0  0  0  0  0  0  0  0  0
    2.3375    1.2412    0.8310 H   0  0  0  0  0  0  0  0  0  0  0  0
    2.6626   -0.4444    1.4467 H   0  0  0  0  0  0  0  0  0  0  0  0
    4.6791    0.1318    0.4222 H   0  0  0  0  0  0  0  0  0  0  0  0
    3.8512   -0.2499   -1.0636 H   0  0  0  0  0  0  0  0  0  0  0  0
   -0.2703    0.6793    1.8422 H   0  0  0  0  0  0  0  0  0  0  0  0
   -0.5112   -1.1814    1.9047 H   0  0  0  0  0  0  0  0  0  0  0  0
  1  2  1  0
  2  3  1  0
  2  4  1  0
  4  5  1  0
  5  6  1  0
  6  7  2  0
  6  8  1  0
  8  9  1  0
  5 10  1  0
 10  2  1  0
  1 11  1  0
  1 12  1  0
  1 13  1  0
  3 14  1  0
  3 15  1  0
  4 16  1  0
  4 17  1  0
  8 18  1  0
  8 19  1  0
  9 20  1  0
  9 21  1  0
 10 22  1  0
 10 23  1  0
M  END
$$$$

     RDKit          3D

 23 23  0  0  0  0  0  0  0  0999 V2000
   -2.9868    0.3529    0.4829 C   0  0  0  0  0  0  0  0  0  0  0  0
   -1.6488   -0.1662    0.0519 C   0  0  0  0  0  0  0  0  0  0  0  0
   -1.6683   -1.5253   -0.4450 N   0  0  0  0  0  0  0  0  0  0  0  0
   -0.9219    0.8062   -0.8515 C   0  0  0  0  0  0  0  0  0  0  0  0
    0.3137    0.4052   -0.1710 N   0  0  0  0  0  0  0  0  0  0  0  0
    1.6712    0.3435   -0.5713 C   0  0  0  0  0  0  0  0  0  0  0  0
    2.0247    0.6734   -1.7237 O   0  0  0  0  0  0  0  0  0  0  0  0
    2.6640   -0.1250    0.4186 C   0  0  0  0  0  0  0  0  0  0  0  0
    4.0081   -0.1436   -0.1062 N   0  0  0  0  0  0  0  0  0  0  0  0
   -0.5022    0.1374    0.9934 C   0  0  0  0  0  0  0  0  0  0  0  0
   -3.3534    1.1164   -0.2581 H   0  0  0  0  0  0  0  0  0  0  0  0
   -2.9294    0.8679    1.4555 H   0  0  0  0  0  0  0  0  0  0  0  0
   -3.6835   -0.5007    0.5785 H   0  0  0  0  0  0  0  0  0  0  0  0
   -0.9831   -1.6280   -1.2254 H   0  0  0  0  0  0  0  0  0  0  0  0
   -2.5935   -1.8436   -0.7414 H   0  0  0  0  0  0  0  0  0  0  0  0
   -0.9492    0.5621   -1.9258 H   0  0  0  0  0  0  0  0  0  0  0  0
   -1.2018    1.8513   -0.6124 H   0  0  0  0  0  0  0  0  0  0  0  0
    2.3797   -1.1574    0.7014 H   0  0  0  0  0  0  0  0  0  0  0  0
    2.6738    0.5678    1.2958 H   0  0  0  0  0  0  0  0  0  0  0  0
    4.5569   -0.9795    0.1866 H   0  0  0  0  0  0  0  0  0  0  0  0
    4.0574    0.0631   -1.1192 H   0  0  0  0  0  0  0  0  0  0  0  0
   -0.1783   -0.7237    1.6140 H   0  0  0  0  0  0  0  0  0  0  0  0
   -0.7495    1.0459    1.5847 H   0  0  0  0  0  0  0  0  0  0  0  0
  1  2  1  0
  2  3  1  0
  2  4  1  0
  4  5  1  0
  5  6  1  0
  6  7  2  0
  6  8  1  0
  8  9  1  0
  5 10  1  0
 10  2  1  0
  1 11  1  0
  1 12  1  0
  1 13  1  0
  3 14  1  0
  3 15  1  0
  4 16  1  0
  4 17  1  0
  8 18  1  0
  8 19  1  0
  9 20  1  0
  9 21  1  0
 10 22  1  0
 10 23  1  0
M  END
$$$$

     RDKit          3D

 23 23  0  0  0  0  0  0  0  0999 V2000
   -2.9675    0.1748   -0.5895 C   0  0  0  0  0  0  0  0  0  0  0  0
   -1.6288   -0.1590    0.0121 C   0  0  0  0  0  0  0  0  0  0  0  0
   -1.6258   -1.1040    1.0830 N   0  0  0  0  0  0  0  0  0  0  0  0
   -0.5102   -0.3665   -0.9713 C   0  0  0  0  0  0  0  0  0  0  0  0
    0.3432    0.3863   -0.0512 N   0  0  0  0  0  0  0  0  0  0  0  0
    1.6765    0.4578    0.3539 C   0  0  0  0  0  0  0  0  0  0  0  0
    2.0582    1.2818    1.2206 O   0  0  0  0  0  0  0  0  0  0  0  0
    2.6847   -0.4446   -0.2334 C   0  0  0  0  0  0  0  0  0  0  0  0
    4.0029   -0.2204    0.3106 N   0  0  0  0  0  0  0  0  0  0  0  0
   -0.8758    1.1200    0.3251 C   0  0  0  0  0  0  0  0  0  0  0  0
   -2.7618    0.5839   -1.6062 H   0  0  0  0  0  0  0  0  0  0  0  0
   -3.6872   -0.6408   -0.5771 H   0  0  0  0  0  0  0  0  0  0  0  0
   -3.3914    1.0118    0.0380 H   0  0  0  0  0  0  0  0  0  0  0  0
   -2.1843   -0.7776    1.8999 H   0  0  0  0  0  0  0  0  0  0  0  0
   -2.0736   -1.9882    0.7584 H   0  0  0  0  0  0  0  0  0  0  0  0
   -0.1969   -1.4390   -1.0861 H   0  0  0  0  0  0  0  0  0  0  0  0
   -0.6016    0.1669   -1.9310 H   0  0  0  0  0  0  0  0  0  0  0  0
    2.7156   -0.3649   -1.3500 H   0  0  0  0  0  0  0  0  0  0  0  0
    2.3959   -1.4865    0.0596 H   0  0  0  0  0  0  0  0  0  0  0  0
    4.5994    0.3180   -0.3430 H   0  0  0  0  0  0  0  0  0  0  0  0
    3.9683    0.1617    1.2716 H   0  0  0  0  0  0  0  0  0  0  0  0
   -1.0265    1.9222   -0.4094 H   0  0  0  0  0  0  0  0  0  0  0  0
   -0.9133    1.4064    1.3861 H   0  0  0  0  0  0  0  0  0  0  0  0
  1  2  1  0
  2  3  1  0
  2  4  1  0
  4  5  1  0
  5  6  1  0
  6  7  2  0
  6  8  1  0
  8  9  1  0
  5 10  1  0
 10  2  1  0
  1 11  1  0
  1 12  1  0
  1 13  1  0
  3 14  1  0
  3 15  1  0
  4 16  1  0
  4 17  1  0
  8 18  1  0
  8 19  1  0
  9 20  1  0
  9 21  1  0
 10 22  1  0
 10 23  1  0
M  END
$$$$
