
     RDKit          3D

 26 25  0  0  0  0  0  0  0  0999 V2000
   -3.5749   -0.6549    0.3125 C   0  0  0  0  0  0  0  0  0  0  0  0
   -2.9677    0.2629   -0.5801 N   0  0  0  0  0  0  0  0  0  0  0  0
   -1.5478    0.4145   -0.4995 C   0  0  2  0  0  0  0  0  0  0  0  0
   -0.9666    0.8402   -1.8000 C   0  0  0  0  0  0  0  0  0  0  0  0
   -0.9460   -0.8274    0.0890 C   0  0  0  0  0  0  0  0  0  0  0  0
    0.4722   -0.8133    0.1686 N   0  0  0  0  0  0  0  0  0  0  0  0
    1.2989    0.0993    0.8480 C   0  0  0  0  0  0  0  0  0  0  0  0
    0.7747    1.0312    1.4736 O   0  0  0  0  0  0  0  0  0  0  0  0
    2.7651   -0.1397    0.7564 C   0  0  0  0  0  0  0  0  0  0  0  0
    3.5243    0.7965    1.4240 O   0  0  0  0  0  0  0  0  0  0  0  0
    4.8566    0.4982    1.2599 N   0  0  0  0  0  0  0  0  0  0  0  0
   -3.8078   -0.2449    1.3201 H   0  0  0  0  0  0  0  0  0  0  0  0
   -4.5757   -0.9408   -0.1563 H   0  0  0  0  0  0  0  0  0  0  0  0
   -3.0770   -1.6254    0.4485 H   0  0  0  0  0  0  0  0  0  0  0  0
   -3.2179   -0.0451   -1.5674 H   0  0  0  0  0  0  0  0  0  0  0  0
   -1.3850    1.2506    0.2735 H   0  0  0  0  0  0  0  0  0  0  0  0
   -1.5968    0.6203   -2.6793 H   0  0  0  0  0  0  0  0  0  0  0  0
    0.0264    0.3650   -2.0135 H   0  0  0  0  0  0  0  0  0  0  0  0
   -0.8455    1.9658   -1.8228 H   0  0  0  0  0  0  0  0  0  0  0  0
   -1.3335   -0.8802    1.1466 H   0  0  0  0  0  0  0  0  0  0  0  0
   -1.2764   -1.7057   -0.4945 H   0  0  0  0  0  0  0  0  0  0  0  0
    0.9693   -1.6065   -0.3684 H   0  0  0  0  0  0  0  0  0  0  0  0
    3.0237   -0.1785   -0.3277 H   0  0  0  0  0  0  0  0  0  0  0  0
    2.9885   -1.1249    1.1677 H   0  0  0  0  0  0  0  0  0  0  0  0
    5.3755    1.4269    1.2889 H   0  0  0  0  0  0  0  0  0  0  0  0
    5.0432    0.0711    0.3322 H   0  0  0  0  0  0  0  0  0  0  0  0
  1  2  1  0
  2  3  1  0
  3  4  1  0
  3  5  1  0
  5  6  1  0
  6  7  1  0
  7  8  2  0
  7  9  1  0
  9 10  1  0
 10 11  1  0
  1 12  1  0
  1 13  1  0
  1 14  1  0
  2 15  1  0
  3 16  1  1
  4 17  1  0
  4 18  1  0
  4 19  1  0
  5 20  1  0
  5 21  1  0
  6 22  1  0
  9 23  1  0
  9 24  1  0
 11 25  1  0
 11 26  1  0
M  END
$$$$

     RDKit          3D

 26 25  0  0  0  0  0  0  0  0999 V2000
   -3.8443    0.9887    0.1914 C   0  0  0  0  0  0  0  0  0  0  0  0
   -2.6542    0.7688    0.9466 N   0  0  0  0  0  0  0  0  0  0  0  0
   -1.4812    0.4842    0.0853 C   0  0  2  0  0  0  0  0  0  0  0  0
   -1.7943   -0.7732   -0.6310 C   0  0  0  0  0  0  0  0  0  0  0  0
   -0.3293    0.4208    0.9926 C   0  0  0  0  0  0  0  0  0  0  0  0
    0.9778    0.1928    0.5143 N   0  0  0  0  0  0  0  0  0  0  0  0
    1.5186   -0.9501   -0.1113 C   0  0  0  0  0  0  0  0  0  0  0  0
    0.8055   -1.9516   -0.2905 O   0  0  0  0  0  0  0  0  0  0  0  0
    2.9673   -0.9669   -0.5678 C   0  0  0  0  0  0  0  0  0  0  0  0
    3.5726    0.2380   -0.2858 O   0  0  0  0  0  0  0  0  0  0  0  0
    4.8435    0.3153   -0.6522 N   0  0  0  0  0  0  0  0  0  0  0  0
   -4.4610    0.0572    0.1308 H   0  0  0  0  0  0  0  0  0  0  0  0
   -4.4205    1.7951    0.7060 H   0  0  0  0  0  0  0  0  0  0  0  0
   -3.6157    1.3540   -0.8346 H   0  0  0  0  0  0  0  0  0  0  0  0
   -2.7435   -0.0506    1.5749 H   0  0  0  0  0  0  0  0  0  0  0  0
   -1.3905    1.3036   -0.6678 H   0  0  0  0  0  0  0  0  0  0  0  0
   -1.7776   -1.6651    0.0056 H   0  0  0  0  0  0  0  0  0  0  0  0
   -1.2432   -0.9648   -1.5585 H   0  0  0  0  0  0  0  0  0  0  0  0
   -2.9050   -0.7026   -0.9312 H   0  0  0  0  0  0  0  0  0  0  0  0
   -0.2927    1.3814    1.6071 H   0  0  0  0  0  0  0  0  0  0  0  0
   -0.5551   -0.3407    1.8113 H   0  0  0  0  0  0  0  0  0  0  0  0
    1.6858    0.9983    0.6324 H   0  0  0  0  0  0  0  0  0  0  0  0
    3.4787   -1.7399    0.0590 H   0  0  0  0  0  0  0  0  0  0  0  0
    3.0127   -1.2582   -1.6343 H   0  0  0  0  0  0  0  0  0  0  0  0
    5.5340   -0.0234    0.0209 H   0  0  0  0  0  0  0  0  0  0  0  0
    5.1117    1.0888   -1.2628 H   0  0  0  0  0  0  0  0  0  0  0  0
  1  2  1  0
  2  3  1  0
  3  4  1  0
  3  5  1  0
  5  6  1  0
  6  7  1  0
  7  8  2  0
  7  9  1  0
  9 10  1  0
 10 11  1  0
  1 12  1  0
  1 13  1  0
  1 14  1  0
  2 15  1  0
  3 16  1  6
  4 17  1  0
  4 18  1  0
  4 19  1  0
  5 20  1  0
  5 21  1  0
  6 22  1  0
  9 23  1  0
  9 24  1  0
 11 25  1  0
 11 26  1  0
M  END
$$$$

     RDKit          3D

 26 25  0  0  0  0  0  0  0  0999 V2000
   -3.7411    0.4633    0.1460 C   0  0  0  0  0  0  0  0  0  0  0  0
   -2.7432    0.7114   -0.8227 N   0  0  0  0  0  0  0  0  0  0  0  0
   -1.4552    0.1652   -0.6241 C   0  0  2  0  0  0  0  0  0  0  0  0
   -1.4571   -1.3599   -0.6059 C   0  0  0  0  0  0  0  0  0  0  0  0
   -0.8181    0.7175    0.6058 C   0  0  0  0  0  0  0  0  0  0  0  0
    0.5004    0.1842    0.8450 N   0  0  0  0  0  0  0  0  0  0  0  0
    1.5547    0.3409   -0.0833 C   0  0  0  0  0  0  0  0  0  0  0  0
    1.3771    0.9589   -1.1612 O   0  0  0  0  0  0  0  0  0  0  0  0
    2.8838   -0.2218    0.2064 C   0  0  0  0  0  0  0  0  0  0  0  0
    3.7793    0.0554   -0.8206 O   0  0  0  0  0  0  0  0  0  0  0  0
    5.0022   -0.4385   -0.6011 N   0  0  0  0  0  0  0  0  0  0  0  0
   -4.1048   -0.5844    0.1931 H   0  0  0  0  0  0  0  0  0  0  0  0
   -4.6202    1.1233   -0.1181 H   0  0  0  0  0  0  0  0  0  0  0  0
   -3.4432    0.7773    1.1684 H   0  0  0  0  0  0  0  0  0  0  0  0
   -2.8576    1.4872   -1.4707 H   0  0  0  0  0  0  0  0  0  0  0  0
   -0.8482    0.4259   -1.5458 H   0  0  0  0  0  0  0  0  0  0  0  0
   -2.4208   -1.7417   -1.0069 H   0  0  0  0  0  0  0  0  0  0  0  0
   -0.6166   -1.7890   -1.1707 H   0  0  0  0  0  0  0  0  0  0  0  0
   -1.3772   -1.6627    0.4576 H   0  0  0  0  0  0  0  0  0  0  0  0
   -0.7128    1.8189    0.5605 H   0  0  0  0  0  0  0  0  0  0  0  0
   -1.4728    0.4883    1.4725 H   0  0  0  0  0  0  0  0  0  0  0  0
    0.6856   -0.3294    1.7220 H   0  0  0  0  0  0  0  0  0  0  0  0
    3.3134    0.1138    1.1512 H   0  0  0  0  0  0  0  0  0  0  0  0
    2.8028   -1.3437    0.2568 H   0  0  0  0  0  0  0  0  0  0  0  0
    5.7216    0.3047   -0.8054 H   0  0  0  0  0  0  0  0  0  0  0  0
    5.0681   -0.6650    0.4348 H   0  0  0  0  0  0  0  0  0  0  0  0
  1  2  1  0
  2  3  1  0
  3  4  1  0
  3  5  1  0
  5  6  1  0
  6  7  1  0
  7  8  2  0
  7  9  1  0
  9 10  1  0
 10 11  1  0
  1 12  1  0
  1 13  1  0
  1 14  1  0
  2 15  1  0
  3 16  1  6
  4 17  1  0
  4 18  1  0
  4 19  1  0
  5 20  1  0
  5 21  1  0
  6 22  1  0
  9 23  1  0
  9 24  1  0
 11 25  1  0
 11 26  1  0
M  END
$$$$

     RDKit          3D

 26 25  0  0  0  0  0  0  0  0999 V2000
   -3.5324    1.0642   -0.2505 C   0  0  0  0  0  0  0  0  0  0  0  0
   -2.5687    0.8035   -1.2904 N   0  0  0  0  0  0  0  0  0  0  0  0
   -1.3756    0.1273   -0.8148 C   0  0  2  0  0  0  0  0  0  0  0  0
   -1.8256   -1.2313   -0.2912 C   0  0  0  0  0  0  0  0  0  0  0  0
   -0.7745    0.8984    0.3389 C   0  0  0  0  0  0  0  0  0  0  0  0
    0.4188    0.2760    0.8527 N   0  0  0  0  0  0  0  0  0  0  0  0
    1.5887    0.0647    0.0484 C   0  0  0  0  0  0  0  0  0  0  0  0
    1.5222    0.4531   -1.1373 O   0  0  0  0  0  0  0  0  0  0  0  0
    2.8118   -0.5785    0.5880 C   0  0  0  0  0  0  0  0  0  0  0  0
    3.7457   -0.6130   -0.4621 O   0  0  0  0  0  0  0  0  0  0  0  0
    4.9093   -1.1902   -0.0657 N   0  0  0  0  0  0  0  0  0  0  0  0
   -4.5481    1.1495   -0.6859 H   0  0  0  0  0  0  0  0  0  0  0  0
   -3.5523    0.3106    0.5568 H   0  0  0  0  0  0  0  0  0  0  0  0
   -3.3096    2.0888    0.1694 H   0  0  0  0  0  0  0  0  0  0  0  0
   -2.2648    1.7196   -1.6844 H   0  0  0  0  0  0  0  0  0  0  0  0
   -0.7006   -0.0172   -1.6538 H   0  0  0  0  0  0  0  0  0  0  0  0
   -2.7531   -1.5817   -0.7896 H   0  0  0  0  0  0  0  0  0  0  0  0
   -1.0421   -1.9690   -0.5349 H   0  0  0  0  0  0  0  0  0  0  0  0
   -1.9608   -1.1347    0.7918 H   0  0  0  0  0  0  0  0  0  0  0  0
   -1.5164    0.9172    1.1635 H   0  0  0  0  0  0  0  0  0  0  0  0
   -0.6381    1.9379    0.0192 H   0  0  0  0  0  0  0  0  0  0  0  0
    0.5004   -0.0591    1.8415 H   0  0  0  0  0  0  0  0  0  0  0  0
    3.2826   -0.0163    1.4048 H   0  0  0  0  0  0  0  0  0  0  0  0
    2.6231   -1.6136    0.9359 H   0  0  0  0  0  0  0  0  0  0  0  0
    5.4838   -1.2807   -0.9474 H   0  0  0  0  0  0  0  0  0  0  0  0
    5.4762   -0.5253    0.5347 H   0  0  0  0  0  0  0  0  0  0  0  0
  1  2  1  0
  2  3  1  0
  3  4  1  0
  3  5  1  0
  5  6  1  0
  6  7  1  0
  7  8  2  0
  7  9  1  0
  9 10  1  0
 10 11  1  0
  1 12  1  0
  1 13  1  0
  1 14  1  0
  2 15  1  0
  3 16  1  6
  4 17  1  0
  4 18  1  0
  4 19  1  0
  5 20  1  0
  5 21  1  0
  6 22  1  0
  9 23  1  0
  9 24  1  0
 11 25  1  0
 11 26  1  0
M  END
$$$$

     RDKit          3D

 26 25  0  0  0  0  0  0  0  0999 V2000
   -2.9669   -0.8570   -1.6846 C   0  0  0  0  0  0  0  0  0  0  0  0
   -1.8038   -0.1441   -1.1494 N   0  0  0  0  0  0  0  0  0  0  0  0
   -1.6696   -0.3998    0.2710 C   0  0  2  0  0  0  0  0  0  0  0  0
   -2.9453    0.1716    0.9084 C   0  0  0  0  0  0  0  0  0  0  0  0
   -0.5370    0.3242    0.9005 C   0  0  0  0  0  0  0  0  0  0  0  0
    0.7568    0.0169    0.3642 N   0  0  0  0  0  0  0  0  0  0  0  0
    1.9323    0.6327    0.8747 C   0  0  0  0  0  0  0  0  0  0  0  0
    1.7509    1.4565    1.8239 O   0  0  0  0  0  0  0  0  0  0  0  0
    3.2942    0.3589    0.3619 C   0  0  0  0  0  0  0  0  0  0  0  0
    3.3196   -0.5486   -0.6697 O   0  0  0  0  0  0  0  0  0  0  0  0
    4.6432   -0.6776   -1.0198 N   0  0  0  0  0  0  0  0  0  0  0  0
   -3.8996   -0.2680   -1.5241 H   0  0  0  0  0  0  0  0  0  0  0  0
   -3.0998   -1.8472   -1.1892 H   0  0  0  0  0  0  0  0  0  0  0  0
   -2.8829   -1.0552   -2.7558 H   0  0  0  0  0  0  0  0  0  0  0  0
   -1.9510    0.8473   -1.3805 H   0  0  0  0  0  0  0  0  0  0  0  0
   -1.6848   -1.4902    0.4381 H   0  0  0  0  0  0  0  0  0  0  0  0
   -3.8266   -0.4376    0.7127 H   0  0  0  0  0  0  0  0  0  0  0  0
   -2.7480    0.2288    2.0070 H   0  0  0  0  0  0  0  0  0  0  0  0
   -3.0245    1.2286    0.5647 H   0  0  0  0  0  0  0  0  0  0  0  0
   -0.5282    0.0367    1.9919 H   0  0  0  0  0  0  0  0  0  0  0  0
   -0.7508    1.4102    0.8607 H   0  0  0  0  0  0  0  0  0  0  0  0
    0.8386   -0.6658   -0.4094 H   0  0  0  0  0  0  0  0  0  0  0  0
    4.0004    0.0779    1.1872 H   0  0  0  0  0  0  0  0  0  0  0  0
    3.6653    1.3330   -0.0554 H   0  0  0  0  0  0  0  0  0  0  0  0
    5.1589   -0.8053   -0.0965 H   0  0  0  0  0  0  0  0  0  0  0  0
    4.9584    0.2888   -1.3327 H   0  0  0  0  0  0  0  0  0  0  0  0
  1  2  1  0
  2  3  1  0
  3  4  1  0
  3  5  1  0
  5  6  1  0
  6  7  1  0
  7  8  2  0
  7  9  1  0
  9 10  1  0
 10 11  1  0
  1 12  1  0
  1 13  1  0
  1 14  1  0
  2 15  1  0
  3 16  1  6
  4 17  1  0
  4 18  1  0
  4 19  1  0
  5 20  1  0
  5 21  1  0
  6 22  1  0
  9 23  1  0
  9 24  1  0
 11 25  1  0
 11 26  1  0
M  END
$$$$

     RDKit          3D

 26 25  0  0  0  0  0  0  0  0999 V2000
   -3.6759   -0.6728    0.8163 C   0  0  0  0  0  0  0  0  0  0  0  0
   -2.2303   -0.5663    0.8674 N   0  0  0  0  0  0  0  0  0  0  0  0
   -1.8463    0.6528    0.1432 C   0  0  2  0  0  0  0  0  0  0  0  0
   -2.2159    0.6037   -1.2940 C   0  0  0  0  0  0  0  0  0  0  0  0
   -0.4565    1.0792    0.4537 C   0  0  0  0  0  0  0  0  0  0  0  0
    0.5570    0.1088    0.1281 N   0  0  0  0  0  0  0  0  0  0  0  0
    1.9274    0.3930    0.3815 C   0  0  0  0  0  0  0  0  0  0  0  0
    2.1896    1.5334    0.9017 O   0  0  0  0  0  0  0  0  0  0  0  0
    3.0273   -0.5506    0.0742 C   0  0  0  0  0  0  0  0  0  0  0  0
    4.2402    0.0327    0.4496 O   0  0  0  0  0  0  0  0  0  0  0  0
    5.2536   -0.8209    0.1658 N   0  0  0  0  0  0  0  0  0  0  0  0
   -4.0178   -1.2813   -0.0703 H   0  0  0  0  0  0  0  0  0  0  0  0
   -4.0913    0.3419    0.6556 H   0  0  0  0  0  0  0  0  0  0  0  0
   -4.0980   -1.1465    1.7234 H   0  0  0  0  0  0  0  0  0  0  0  0
   -1.8716   -1.4147    0.3444 H   0  0  0  0  0  0  0  0  0  0  0  0
   -2.5099    1.4429    0.6181 H   0  0  0  0  0  0  0  0  0  0  0  0
   -1.3882    0.5318   -2.0036 H   0  0  0  0  0  0  0  0  0  0  0  0
   -2.8080    1.5070   -1.6180 H   0  0  0  0  0  0  0  0  0  0  0  0
   -2.9193   -0.2471   -1.4512 H   0  0  0  0  0  0  0  0  0  0  0  0
   -0.3822    1.3026    1.5330 H   0  0  0  0  0  0  0  0  0  0  0  0
   -0.2654    2.0206   -0.1252 H   0  0  0  0  0  0  0  0  0  0  0  0
    0.3660   -0.8335   -0.2973 H   0  0  0  0  0  0  0  0  0  0  0  0
    3.1209   -0.7168   -1.0332 H   0  0  0  0  0  0  0  0  0  0  0  0
    2.8863   -1.5534    0.5142 H   0  0  0  0  0  0  0  0  0  0  0  0
    5.0694   -1.4331   -0.6432 H   0  0  0  0  0  0  0  0  0  0  0  0
    6.1388   -0.3133    0.0159 H   0  0  0  0  0  0  0  0  0  0  0  0
  1  2  1  0
  2  3  1  0
  3  4  1  0
  3  5  1  0
  5  6  1  0
  6  7  1  0
  7  8  2  0
  7  9  1  0
  9 10  1  0
 10 11  1  0
  1 12  1  0
  1 13  1  0
  1 14  1  0
  2 15  1  0
  3 16  1  1
  4 17  1  0
  4 18  1  0
  4 19  1  0
  5 20  1  0
  5 21  1  0
  6 22  1  0
  9 23  1  0
  9 24  1  0
 11 25  1  0
 11 26  1  0
M  END
$$$$

     RDKit          3D

 26 25  0  0  0  0  0  0  0  0999 V2000
   -3.7361   -0.3903    0.5037 C   0  0  0  0  0  0  0  0  0  0  0  0
   -3.0548    0.8625    0.5722 N   0  0  0  0  0  0  0  0  0  0  0  0
   -1.7442    0.8960    0.0187 C   0  0  2  0  0  0  0  0  0  0  0  0
   -1.6946    0.6072   -1.4599 C   0  0  0  0  0  0  0  0  0  0  0  0
   -0.7281    0.0320    0.7152 C   0  0  0  0  0  0  0  0  0  0  0  0
    0.5370    0.2023    0.0056 N   0  0  0  0  0  0  0  0  0  0  0  0
    1.7205   -0.4798    0.4085 C   0  0  0  0  0  0  0  0  0  0  0  0
    1.6248   -1.2389    1.4077 O   0  0  0  0  0  0  0  0  0  0  0  0
    2.9944   -0.2798   -0.3424 C   0  0  0  0  0  0  0  0  0  0  0  0
    3.9577   -1.0820    0.2964 O   0  0  0  0  0  0  0  0  0  0  0  0
    5.1586   -0.9705   -0.3140 N   0  0  0  0  0  0  0  0  0  0  0  0
   -3.0635   -1.2525    0.5720 H   0  0  0  0  0  0  0  0  0  0  0  0
   -4.4105   -0.4753   -0.3834 H   0  0  0  0  0  0  0  0  0  0  0  0
   -4.4117   -0.4629    1.4047 H   0  0  0  0  0  0  0  0  0  0  0  0
   -3.0272    1.1897    1.5462 H   0  0  0  0  0  0  0  0  0  0  0  0
   -1.3816    1.9596    0.1395 H   0  0  0  0  0  0  0  0  0  0  0  0
   -1.3235   -0.4357   -1.6454 H   0  0  0  0  0  0  0  0  0  0  0  0
   -2.6801    0.7353   -1.9130 H   0  0  0  0  0  0  0  0  0  0  0  0
   -1.0005    1.3200   -1.9876 H   0  0  0  0  0  0  0  0  0  0  0  0
   -0.6680    0.3486    1.7646 H   0  0  0  0  0  0  0  0  0  0  0  0
   -1.0413   -1.0388    0.6390 H   0  0  0  0  0  0  0  0  0  0  0  0
    0.6370    0.8326   -0.8311 H   0  0  0  0  0  0  0  0  0  0  0  0
    3.3449    0.7594   -0.3209 H   0  0  0  0  0  0  0  0  0  0  0  0
    2.8796   -0.6409   -1.4058 H   0  0  0  0  0  0  0  0  0  0  0  0
    5.1771   -0.0912   -0.8954 H   0  0  0  0  0  0  0  0  0  0  0  0
    5.9340   -0.9067    0.4029 H   0  0  0  0  0  0  0  0  0  0  0  0
  1  2  1  0
  2  3  1  0
  3  4  1  0
  3  5  1  0
  5  6  1  0
  6  7  1  0
  7  8  2  0
  7  9  1  0
  9 10  1  0
 10 11  1  0
  1 12  1  0
  1 13  1  0
  1 14  1  0
  2 15  1  0
  3 16  1  6
  4 17  1  0
  4 18  1  0
  4 19  1  0
  5 20  1  0
  5 21  1  0
  6 22  1  0
  9 23  1  0
  9 24  1  0
 11 25  1  0
 11 26  1  0
M  END
$$$$

     RDKit          3D

 26 25  0  0  0  0  0  0  0  0999 V2000
   -3.2769    1.2907    0.6067 C   0  0  0  0  0  0  0  0  0  0  0  0
   -1.9607    1.1479    0.0389 N   0  0  0  0  0  0  0  0  0  0  0  0
   -1.8583   -0.0686   -0.7526 C   0  0  2  0  0  0  0  0  0  0  0  0
   -2.0658   -1.2836    0.1197 C   0  0  0  0  0  0  0  0  0  0  0  0
   -0.5796   -0.1358   -1.5129 C   0  0  0  0  0  0  0  0  0  0  0  0
    0.5937   -0.1101   -0.6692 N   0  0  0  0  0  0  0  0  0  0  0  0
    1.8980   -0.1629   -1.1908 C   0  0  0  0  0  0  0  0  0  0  0  0
    2.0136   -0.2351   -2.4446 O   0  0  0  0  0  0  0  0  0  0  0  0
    3.1342   -0.1411   -0.4084 C   0  0  0  0  0  0  0  0  0  0  0  0
    2.9366   -0.0644    0.9596 O   0  0  0  0  0  0  0  0  0  0  0  0
    4.1958   -0.0540    1.5107 N   0  0  0  0  0  0  0  0  0  0  0  0
   -3.7173    2.2946    0.4261 H   0  0  0  0  0  0  0  0  0  0  0  0
   -3.2417    1.1403    1.6875 H   0  0  0  0  0  0  0  0  0  0  0  0
   -3.9577    0.5571    0.1257 H   0  0  0  0  0  0  0  0  0  0  0  0
   -1.2518    1.1672    0.8264 H   0  0  0  0  0  0  0  0  0  0  0  0
   -2.7288   -0.0231   -1.4598 H   0  0  0  0  0  0  0  0  0  0  0  0
   -2.9985   -1.2188    0.7037 H   0  0  0  0  0  0  0  0  0  0  0  0
   -2.0702   -2.1814   -0.5289 H   0  0  0  0  0  0  0  0  0  0  0  0
   -1.2361   -1.3853    0.8507 H   0  0  0  0  0  0  0  0  0  0  0  0
   -0.6209   -1.0724   -2.1342 H   0  0  0  0  0  0  0  0  0  0  0  0
   -0.4844    0.6919   -2.2298 H   0  0  0  0  0  0  0  0  0  0  0  0
    0.4848   -0.0502    0.3711 H   0  0  0  0  0  0  0  0  0  0  0  0
    3.6711    0.8120   -0.6923 H   0  0  0  0  0  0  0  0  0  0  0  0
    3.7529   -1.0159   -0.7113 H   0  0  0  0  0  0  0  0  0  0  0  0
    4.6135    0.8628    1.2751 H   0  0  0  0  0  0  0  0  0  0  0  0
    4.7545   -0.7616    0.9453 H   0  0  0  0  0  0  0  0  0  0  0  0
  1  2  1  0
  2  3  1  0
  3  4  1  0
  3  5  1  0
  5  6  1  0
  6  7  1  0
  7  8  2  0
  7  9  1  0
  9 10  1  0
 10 11  1  0
  1 12  1  0
  1 13  1  0
  1 14  1  0
  2 15  1  0
  3 16  1  6
  4 17  1  0
  4 18  1  0
  4 19  1  0
  5 20  1  0
  5 21  1  0
  6 22  1  0
  9 23  1  0
  9 24  1  0
 11 25  1  0
 11 26  1  0
M  END
$$$$
