
     RDKit          3D

 31 31  0  0  0  0  0  0  0  0999 V2000
   -4.0208    1.1592    0.0334 N   0  0  0  0  0  0  0  0  0  0  0  0
   -3.1665    0.6337   -0.8291 O   0  0  0  0  0  0  0  0  0  0  0  0
   -3.1062   -0.7746   -0.8139 C   0  0  0  0  0  0  0  0  0  0  0  0
   -2.2296   -1.1525    0.3446 C   0  0  0  0  0  0  0  0  0  0  0  0
   -0.9761   -0.3958    0.5033 C   0  0  0  0  0  0  0  0  0  0  0  0
    0.2526   -1.0209    0.2739 N   0  0  0  0  0  0  0  0  0  0  0  0
    0.7630   -1.0122   -1.0440 C   0  0  0  0  0  0  0  0  0  0  0  0
    1.2256    0.4445   -1.1519 C   0  0  0  0  0  0  0  0  0  0  0  0
    1.8668    0.6622    0.2118 C   0  0  2  0  0  0  0  0  0  0  0  0
    1.5337    1.9130    0.6992 O   0  0  0  0  0  0  0  0  0  0  0  0
    3.3768    0.5035    0.1095 C   0  0  0  0  0  0  0  0  0  0  0  0
    3.7780    0.2529   -1.1920 O   0  0  0  0  0  0  0  0  0  0  0  0
    1.2733   -0.4380    1.0873 C   0  0  0  0  0  0  0  0  0  0  0  0
   -4.9197    1.4298   -0.3177 H   0  0  0  0  0  0  0  0  0  0  0  0
   -3.5492    2.0747    0.3839 H   0  0  0  0  0  0  0  0  0  0  0  0
   -2.6188   -1.1117   -1.7214 H   0  0  0  0  0  0  0  0  0  0  0  0
   -4.0681   -1.2448   -0.6891 H   0  0  0  0  0  0  0  0  0  0  0  0
   -1.8818   -2.2271    0.1334 H   0  0  0  0  0  0  0  0  0  0  0  0
   -2.8104   -1.2495    1.2932 H   0  0  0  0  0  0  0  0  0  0  0  0
   -1.1241    0.5228   -0.1864 H   0  0  0  0  0  0  0  0  0  0  0  0
   -0.9801    0.0539    1.5188 H   0  0  0  0  0  0  0  0  0  0  0  0
    1.6974   -1.6196   -1.0430 H   0  0  0  0  0  0  0  0  0  0  0  0
    0.1265   -1.3318   -1.8377 H   0  0  0  0  0  0  0  0  0  0  0  0
    1.9675    0.5565   -1.9724 H   0  0  0  0  0  0  0  0  0  0  0  0
    0.4143    1.1570   -1.3581 H   0  0  0  0  0  0  0  0  0  0  0  0
    1.8691    2.0124    1.6150 H   0  0  0  0  0  0  0  0  0  0  0  0
    3.7300   -0.3325    0.7412 H   0  0  0  0  0  0  0  0  0  0  0  0
    3.8697    1.4231    0.5054 H   0  0  0  0  0  0  0  0  0  0  0  0
    4.7517    0.3681   -1.2458 H   0  0  0  0  0  0  0  0  0  0  0  0
    0.8990   -0.0432    2.0432 H   0  0  0  0  0  0  0  0  0  0  0  0
    2.0566   -1.2132    1.2374 H   0  0  0  0  0  0  0  0  0  0  0  0
  1  2  1  0
  2  3  1  0
  3  4  1  0
  4  5  1  0
  5  6  1  0
  6  7  1  0
  7  8  1  0
  8  9  1  0
  9 10  1  1
  9 11  1  0
 11 12  1  0
  9 13  1  0
 13  6  1  0
  1 14  1  0
  1 15  1  0
  3 16  1  0
  3 17  1  0
  4 18  1  0
  4 19  1  0
  5 20  1  0
  5 21  1  0
  7 22  1  0
  7 23  1  0
  8 24  1  0
  8 25  1  0
 10 26  1  0
 11 27  1  0
 11 28  1  0
 12 29  1  0
 13 30  1  0
 13 31  1  0
M  END
$$$$

     RDKit          3D

 31 31  0  0  0  0  0  0  0  0999 V2000
    5.1011    0.0857   -0.1508 N   0  0  0  0  0  0  0  0  0  0  0  0
    3.9992    0.4351    0.5349 O   0  0  0  0  0  0  0  0  0  0  0  0
    2.9787   -0.5644    0.1205 C   0  0  0  0  0  0  0  0  0  0  0  0
    2.1185    0.3730   -0.7165 C   0  0  0  0  0  0  0  0  0  0  0  0
    1.0187    1.1812   -0.0672 C   0  0  0  0  0  0  0  0  0  0  0  0
   -0.1886    0.4461   -0.3017 N   0  0  0  0  0  0  0  0  0  0  0  0
   -0.2489   -0.8822    0.2287 C   0  0  0  0  0  0  0  0  0  0  0  0
   -1.6478   -1.2591   -0.2813 C   0  0  0  0  0  0  0  0  0  0  0  0
   -2.4234    0.0070    0.2124 C   0  0  2  0  0  0  0  0  0  0  0  0
   -2.6369   -0.2810    1.5455 O   0  0  0  0  0  0  0  0  0  0  0  0
   -3.7150    0.0614   -0.5674 C   0  0  0  0  0  0  0  0  0  0  0  0
   -4.6087    0.8516    0.2140 O   0  0  0  0  0  0  0  0  0  0  0  0
   -1.4278    1.0735   -0.0675 C   0  0  0  0  0  0  0  0  0  0  0  0
    5.5314    0.9200   -0.6051 H   0  0  0  0  0  0  0  0  0  0  0  0
    5.5308   -0.7720   -0.1233 H   0  0  0  0  0  0  0  0  0  0  0  0
    3.4138   -1.3710   -0.2569 H   0  0  0  0  0  0  0  0  0  0  0  0
    2.4372   -0.7184    1.1391 H   0  0  0  0  0  0  0  0  0  0  0  0
    1.7574   -0.2849   -1.5501 H   0  0  0  0  0  0  0  0  0  0  0  0
    2.8293    1.0812   -1.2556 H   0  0  0  0  0  0  0  0  0  0  0  0
    1.2710    1.1705    1.0330 H   0  0  0  0  0  0  0  0  0  0  0  0
    0.9235    2.1837   -0.4332 H   0  0  0  0  0  0  0  0  0  0  0  0
   -0.2766   -0.8498    1.3444 H   0  0  0  0  0  0  0  0  0  0  0  0
    0.5099   -1.5630   -0.1618 H   0  0  0  0  0  0  0  0  0  0  0  0
   -1.6123   -1.2701   -1.3595 H   0  0  0  0  0  0  0  0  0  0  0  0
   -2.0318   -2.1792    0.1918 H   0  0  0  0  0  0  0  0  0  0  0  0
   -2.6883   -1.2285    1.7429 H   0  0  0  0  0  0  0  0  0  0  0  0
   -4.1203   -0.9128   -0.6967 H   0  0  0  0  0  0  0  0  0  0  0  0
   -3.5697    0.6206   -1.5245 H   0  0  0  0  0  0  0  0  0  0  0  0
   -5.0594    0.1958    0.8760 H   0  0  0  0  0  0  0  0  0  0  0  0
   -1.7423    1.5717   -1.0405 H   0  0  0  0  0  0  0  0  0  0  0  0
   -1.4224    1.8781    0.6647 H   0  0  0  0  0  0  0  0  0  0  0  0
  1  2  1  0
  2  3  1  0
  3  4  1  0
  4  5  1  0
  5  6  1  0
  6  7  1  0
  7  8  1  0
  8  9  1  0
  9 10  1  1
  9 11  1  0
 11 12  1  0
  9 13  1  0
 13  6  1  0
  1 14  1  0
  1 15  1  0
  3 16  1  0
  3 17  1  0
  4 18  1  0
  4 19  1  0
  5 20  1  0
  5 21  1  0
  7 22  1  0
  7 23  1  0
  8 24  1  0
  8 25  1  0
 10 26  1  0
 11 27  1  0
 11 28  1  0
 12 29  1  0
 13 30  1  0
 13 31  1  0
M  END
$$$$

     RDKit          3D

 31 31  0  0  0  0  0  0  0  0999 V2000
    5.3294   -0.1699    0.0959 N   0  0  0  0  0  0  0  0  0  0  0  0
    4.0128   -0.5301    0.1321 O   0  0  0  0  0  0  0  0  0  0  0  0
    3.3343    0.2298    1.1135 C   0  0  0  0  0  0  0  0  0  0  0  0
    1.8885   -0.1725    1.1403 C   0  0  0  0  0  0  0  0  0  0  0  0
    1.1872    0.0441   -0.1813 C   0  0  0  0  0  0  0  0  0  0  0  0
   -0.1748   -0.3617   -0.0268 N   0  0  0  0  0  0  0  0  0  0  0  0
   -0.9611    0.4730    0.8203 C   0  0  0  0  0  0  0  0  0  0  0  0
   -2.3480   -0.0774    0.5856 C   0  0  0  0  0  0  0  0  0  0  0  0
   -2.3452   -0.2147   -0.9261 C   0  0  2  0  0  0  0  0  0  0  0  0
   -2.6755    1.0111   -1.4543 O   0  0  0  0  0  0  0  0  0  0  0  0
   -3.3477   -1.2591   -1.3785 C   0  0  0  0  0  0  0  0  0  0  0  0
   -4.6025   -0.8135   -0.8955 O   0  0  0  0  0  0  0  0  0  0  0  0
   -0.9121   -0.6312   -1.1999 C   0  0  0  0  0  0  0  0  0  0  0  0
    5.3904    0.6990   -0.4918 H   0  0  0  0  0  0  0  0  0  0  0  0
    5.6731    0.0361    1.0645 H   0  0  0  0  0  0  0  0  0  0  0  0
    3.4455    1.2943    0.8844 H   0  0  0  0  0  0  0  0  0  0  0  0
    3.8269    0.0124    2.0993 H   0  0  0  0  0  0  0  0  0  0  0  0
    1.8032   -1.2521    1.4599 H   0  0  0  0  0  0  0  0  0  0  0  0
    1.4032    0.3960    1.9842 H   0  0  0  0  0  0  0  0  0  0  0  0
    1.6937   -0.5692   -0.9382 H   0  0  0  0  0  0  0  0  0  0  0  0
    1.3263    1.0950   -0.4727 H   0  0  0  0  0  0  0  0  0  0  0  0
   -0.9664    1.5426    0.4507 H   0  0  0  0  0  0  0  0  0  0  0  0
   -0.6552    0.4338    1.8853 H   0  0  0  0  0  0  0  0  0  0  0  0
   -2.3944   -1.0774    1.0626 H   0  0  0  0  0  0  0  0  0  0  0  0
   -3.1405    0.6185    0.9319 H   0  0  0  0  0  0  0  0  0  0  0  0
   -3.0015    1.6440   -0.7670 H   0  0  0  0  0  0  0  0  0  0  0  0
   -3.4086   -1.2206   -2.4791 H   0  0  0  0  0  0  0  0  0  0  0  0
   -3.1157   -2.2724   -1.0146 H   0  0  0  0  0  0  0  0  0  0  0  0
   -4.7838   -1.1473    0.0106 H   0  0  0  0  0  0  0  0  0  0  0  0
   -0.5381   -0.1933   -2.1302 H   0  0  0  0  0  0  0  0  0  0  0  0
   -0.9436   -1.7476   -1.3652 H   0  0  0  0  0  0  0  0  0  0  0  0
  1  2  1  0
  2  3  1  0
  3  4  1  0
  4  5  1  0
  5  6  1  0
  6  7  1  0
  7  8  1  0
  8  9  1  0
  9 10  1  6
  9 11  1  0
 11 12  1  0
  9 13  1  0
 13  6  1  0
  1 14  1  0
  1 15  1  0
  3 16  1  0
  3 17  1  0
  4 18  1  0
  4 19  1  0
  5 20  1  0
  5 21  1  0
  7 22  1  0
  7 23  1  0
  8 24  1  0
  8 25  1  0
 10 26  1  0
 11 27  1  0
 11 28  1  0
 12 29  1  0
 13 30  1  0
 13 31  1  0
M  END
$$$$

     RDKit          3D

 31 31  0  0  0  0  0  0  0  0999 V2000
    4.6303    1.6570   -0.2015 N   0  0  0  0  0  0  0  0  0  0  0  0
    3.7802    0.9451   -0.8668 O   0  0  0  0  0  0  0  0  0  0  0  0
    2.4578    0.8867   -0.3147 C   0  0  0  0  0  0  0  0  0  0  0  0
    2.2879   -0.5657   -0.0974 C   0  0  0  0  0  0  0  0  0  0  0  0
    1.0045   -1.0555    0.4408 C   0  0  0  0  0  0  0  0  0  0  0  0
   -0.1276   -0.6558   -0.4248 N   0  0  0  0  0  0  0  0  0  0  0  0
   -0.9774   -1.8209   -0.7314 C   0  0  0  0  0  0  0  0  0  0  0  0
   -2.1632   -0.9569   -1.2972 C   0  0  0  0  0  0  0  0  0  0  0  0
   -2.4041   -0.1794   -0.0693 C   0  0  2  0  0  0  0  0  0  0  0  0
   -3.0454   -0.9249    0.8743 O   0  0  0  0  0  0  0  0  0  0  0  0
   -3.1336    1.1476   -0.2482 C   0  0  0  0  0  0  0  0  0  0  0  0
   -2.6757    1.9665   -1.2249 O   0  0  0  0  0  0  0  0  0  0  0  0
   -0.9816    0.1311    0.3982 C   0  0  0  0  0  0  0  0  0  0  0  0
    5.2481    2.3886   -0.4825 H   0  0  0  0  0  0  0  0  0  0  0  0
    5.2632    0.9112    0.3885 H   0  0  0  0  0  0  0  0  0  0  0  0
    1.7430    1.3349   -1.1201 H   0  0  0  0  0  0  0  0  0  0  0  0
    2.5382    1.4873    0.5716 H   0  0  0  0  0  0  0  0  0  0  0  0
    2.7507   -1.1528   -0.9082 H   0  0  0  0  0  0  0  0  0  0  0  0
    3.0772   -0.7109    0.8192 H   0  0  0  0  0  0  0  0  0  0  0  0
    0.9507   -2.1875    0.4888 H   0  0  0  0  0  0  0  0  0  0  0  0
    0.7815   -0.7144    1.4565 H   0  0  0  0  0  0  0  0  0  0  0  0
   -1.3126   -2.3295    0.1324 H   0  0  0  0  0  0  0  0  0  0  0  0
   -0.5194   -2.4355   -1.5399 H   0  0  0  0  0  0  0  0  0  0  0  0
   -1.6280   -0.3096   -2.0933 H   0  0  0  0  0  0  0  0  0  0  0  0
   -2.9062   -1.5637   -1.7645 H   0  0  0  0  0  0  0  0  0  0  0  0
   -3.4979   -1.7485    0.5962 H   0  0  0  0  0  0  0  0  0  0  0  0
   -4.2175    1.0470   -0.3156 H   0  0  0  0  0  0  0  0  0  0  0  0
   -2.9797    1.6109    0.7967 H   0  0  0  0  0  0  0  0  0  0  0  0
   -2.2065    2.7697   -0.8112 H   0  0  0  0  0  0  0  0  0  0  0  0
   -0.9476   -0.2090    1.4836 H   0  0  0  0  0  0  0  0  0  0  0  0
   -0.7893    1.2369    0.3305 H   0  0  0  0  0  0  0  0  0  0  0  0
  1  2  1  0
  2  3  1  0
  3  4  1  0
  4  5  1  0
  5  6  1  0
  6  7  1  0
  7  8  1  0
  8  9  1  0
  9 10  1  1
  9 11  1  0
 11 12  1  0
  9 13  1  0
 13  6  1  0
  1 14  1  0
  1 15  1  0
  3 16  1  0
  3 17  1  0
  4 18  1  0
  4 19  1  0
  5 20  1  0
  5 21  1  0
  7 22  1  0
  7 23  1  0
  8 24  1  0
  8 25  1  0
 10 26  1  0
 11 27  1  0
 11 28  1  0
 12 29  1  0
 13 30  1  0
 13 31  1  0
M  END
$$$$

     RDKit          3D

 31 31  0  0  0  0  0  0  0  0999 V2000
    4.8364    0.4048    1.3236 N   0  0  0  0  0  0  0  0  0  0  0  0
    3.4925    0.4289    1.1658 O   0  0  0  0  0  0  0  0  0  0  0  0
    3.2378    0.5486   -0.1900 C   0  0  0  0  0  0  0  0  0  0  0  0
    1.7242    0.5843   -0.4632 C   0  0  0  0  0  0  0  0  0  0  0  0
    1.1727   -0.6952    0.0544 C   0  0  0  0  0  0  0  0  0  0  0  0
   -0.2035   -0.9270   -0.0626 N   0  0  0  0  0  0  0  0  0  0  0  0
   -0.7780   -1.1144   -1.3370 C   0  0  0  0  0  0  0  0  0  0  0  0
   -2.2687   -0.8066   -1.1971 C   0  0  0  0  0  0  0  0  0  0  0  0
   -2.4337   -0.1784    0.1537 C   0  0  2  0  0  0  0  0  0  0  0  0
   -3.1941   -0.9892    0.9916 O   0  0  0  0  0  0  0  0  0  0  0  0
   -3.0887    1.1767    0.0817 C   0  0  0  0  0  0  0  0  0  0  0  0
   -3.1382    1.7181    1.3560 O   0  0  0  0  0  0  0  0  0  0  0  0
   -1.0242    0.0001    0.6761 C   0  0  0  0  0  0  0  0  0  0  0  0
    4.9989   -0.0796    2.2476 H   0  0  0  0  0  0  0  0  0  0  0  0
    5.2364   -0.2276    0.5884 H   0  0  0  0  0  0  0  0  0  0  0  0
    3.6240   -0.3382   -0.7592 H   0  0  0  0  0  0  0  0  0  0  0  0
    3.6796    1.4454   -0.6589 H   0  0  0  0  0  0  0  0  0  0  0  0
    1.2703    1.4239    0.0576 H   0  0  0  0  0  0  0  0  0  0  0  0
    1.6506    0.6587   -1.5824 H   0  0  0  0  0  0  0  0  0  0  0  0
    1.4414   -0.7345    1.1526 H   0  0  0  0  0  0  0  0  0  0  0  0
    1.7517   -1.5435   -0.4030 H   0  0  0  0  0  0  0  0  0  0  0  0
   -0.4028   -0.4514   -2.1331 H   0  0  0  0  0  0  0  0  0  0  0  0
   -0.6743   -2.1644   -1.6703 H   0  0  0  0  0  0  0  0  0  0  0  0
   -2.8689   -1.7274   -1.3006 H   0  0  0  0  0  0  0  0  0  0  0  0
   -2.6078   -0.0856   -1.9607 H   0  0  0  0  0  0  0  0  0  0  0  0
   -4.0775   -1.0924    0.5568 H   0  0  0  0  0  0  0  0  0  0  0  0
   -4.1078    1.1013   -0.3637 H   0  0  0  0  0  0  0  0  0  0  0  0
   -2.4897    1.8386   -0.5677 H   0  0  0  0  0  0  0  0  0  0  0  0
   -3.1186    0.9745    1.9996 H   0  0  0  0  0  0  0  0  0  0  0  0
   -0.9656   -0.1783    1.7686 H   0  0  0  0  0  0  0  0  0  0  0  0
   -0.6744    1.0296    0.4751 H   0  0  0  0  0  0  0  0  0  0  0  0
  1  2  1  0
  2  3  1  0
  3  4  1  0
  4  5  1  0
  5  6  1  0
  6  7  1  0
  7  8  1  0
  8  9  1  0
  9 10  1  1
  9 11  1  0
 11 12  1  0
  9 13  1  0
 13  6  1  0
  1 14  1  0
  1 15  1  0
  3 16  1  0
  3 17  1  0
  4 18  1  0
  4 19  1  0
  5 20  1  0
  5 21  1  0
  7 22  1  0
  7 23  1  0
  8 24  1  0
  8 25  1  0
 10 26  1  0
 11 27  1  0
 11 28  1  0
 12 29  1  0
 13 30  1  0
 13 31  1  0
M  END
$$$$

     RDKit          3D

 31 31  0  0  0  0  0  0  0  0999 V2000
   -4.9526   -1.0834   -0.6793 N   0  0  0  0  0  0  0  0  0  0  0  0
   -3.6231   -1.0877   -0.4396 O   0  0  0  0  0  0  0  0  0  0  0  0
   -3.2719   -0.2973    0.6304 C   0  0  0  0  0  0  0  0  0  0  0  0
   -1.7835   -0.3697    0.8190 C   0  0  0  0  0  0  0  0  0  0  0  0
   -1.1332    0.1470   -0.4740 C   0  0  0  0  0  0  0  0  0  0  0  0
    0.2651    0.0696   -0.2820 N   0  0  0  0  0  0  0  0  0  0  0  0
    0.8586   -1.2102   -0.2035 C   0  0  0  0  0  0  0  0  0  0  0  0
    2.3362   -0.9829   -0.5039 C   0  0  0  0  0  0  0  0  0  0  0  0
    2.4816    0.5372   -0.5039 C   0  0  2  0  0  0  0  0  0  0  0  0
    3.4411    0.9764   -1.3759 O   0  0  0  0  0  0  0  0  0  0  0  0
    2.7021    1.0243    0.9128 C   0  0  0  0  0  0  0  0  0  0  0  0
    3.9243    0.5534    1.3374 O   0  0  0  0  0  0  0  0  0  0  0  0
    1.0943    0.9770   -0.9828 C   0  0  0  0  0  0  0  0  0  0  0  0
   -5.2158   -0.2551   -1.2597 H   0  0  0  0  0  0  0  0  0  0  0  0
   -5.4127   -0.9985    0.2540 H   0  0  0  0  0  0  0  0  0  0  0  0
   -3.7503   -0.6238    1.5742 H   0  0  0  0  0  0  0  0  0  0  0  0
   -3.5227    0.7750    0.4340 H   0  0  0  0  0  0  0  0  0  0  0  0
   -1.4418    0.3154    1.6335 H   0  0  0  0  0  0  0  0  0  0  0  0
   -1.4111   -1.3968    0.9697 H   0  0  0  0  0  0  0  0  0  0  0  0
   -1.5007   -0.4399   -1.3455 H   0  0  0  0  0  0  0  0  0  0  0  0
   -1.4549    1.2070   -0.6090 H   0  0  0  0  0  0  0  0  0  0  0  0
    0.4717   -1.9349   -0.9531 H   0  0  0  0  0  0  0  0  0  0  0  0
    0.7509   -1.6014    0.8388 H   0  0  0  0  0  0  0  0  0  0  0  0
    2.9873   -1.3725    0.2840 H   0  0  0  0  0  0  0  0  0  0  0  0
    2.5881   -1.3314   -1.5087 H   0  0  0  0  0  0  0  0  0  0  0  0
    3.4699    1.9444   -1.3899 H   0  0  0  0  0  0  0  0  0  0  0  0
    1.9200    0.5809    1.5644 H   0  0  0  0  0  0  0  0  0  0  0  0
    2.5971    2.1166    0.9668 H   0  0  0  0  0  0  0  0  0  0  0  0
    4.6400    0.7829    0.6653 H   0  0  0  0  0  0  0  0  0  0  0  0
    1.0204    0.9814   -2.0791 H   0  0  0  0  0  0  0  0  0  0  0  0
    0.9256    1.9970   -0.5682 H   0  0  0  0  0  0  0  0  0  0  0  0
  1  2  1  0
  2  3  1  0
  3  4  1  0
  4  5  1  0
  5  6  1  0
  6  7  1  0
  7  8  1  0
  8  9  1  0
  9 10  1  6
  9 11  1  0
 11 12  1  0
  9 13  1  0
 13  6  1  0
  1 14  1  0
  1 15  1  0
  3 16  1  0
  3 17  1  0
  4 18  1  0
  4 19  1  0
  5 20  1  0
  5 21  1  0
  7 22  1  0
  7 23  1  0
  8 24  1  0
  8 25  1  0
 10 26  1  0
 11 27  1  0
 11 28  1  0
 12 29  1  0
 13 30  1  0
 13 31  1  0
M  END
$$$$

     RDKit          3D

 31 31  0  0  0  0  0  0  0  0999 V2000
    5.2098   -0.2462   -0.4261 N   0  0  0  0  0  0  0  0  0  0  0  0
    3.8750   -0.4139   -0.6319 O   0  0  0  0  0  0  0  0  0  0  0  0
    3.2345   -0.5593    0.5929 C   0  0  0  0  0  0  0  0  0  0  0  0
    1.7503   -0.7448    0.3477 C   0  0  0  0  0  0  0  0  0  0  0  0
    1.1573    0.4454   -0.3772 C   0  0  0  0  0  0  0  0  0  0  0  0
   -0.2124    0.2150   -0.5806 N   0  0  0  0  0  0  0  0  0  0  0  0
   -0.9426    1.2476   -1.2534 C   0  0  0  0  0  0  0  0  0  0  0  0
   -2.3742    1.1272   -0.7489 C   0  0  0  0  0  0  0  0  0  0  0  0
   -2.3740   -0.2599   -0.1488 C   0  0  2  0  0  0  0  0  0  0  0  0
   -2.3746   -1.1869   -1.1581 O   0  0  0  0  0  0  0  0  0  0  0  0
   -3.4642   -0.4657    0.8582 C   0  0  0  0  0  0  0  0  0  0  0  0
   -3.4663    0.4605    1.8688 O   0  0  0  0  0  0  0  0  0  0  0  0
   -0.9883   -0.2661    0.5088 C   0  0  0  0  0  0  0  0  0  0  0  0
    5.5418   -0.9446    0.2811 H   0  0  0  0  0  0  0  0  0  0  0  0
    5.3776    0.7295   -0.0563 H   0  0  0  0  0  0  0  0  0  0  0  0
    3.5743   -1.4576    1.1537 H   0  0  0  0  0  0  0  0  0  0  0  0
    3.3833    0.3312    1.2413 H   0  0  0  0  0  0  0  0  0  0  0  0
    1.6370   -1.6697   -0.2541 H   0  0  0  0  0  0  0  0  0  0  0  0
    1.2152   -0.9186    1.3075 H   0  0  0  0  0  0  0  0  0  0  0  0
    1.7016    0.5391   -1.3327 H   0  0  0  0  0  0  0  0  0  0  0  0
    1.4005    1.3374    0.2407 H   0  0  0  0  0  0  0  0  0  0  0  0
   -0.9703    1.0251   -2.3400 H   0  0  0  0  0  0  0  0  0  0  0  0
   -0.5327    2.2621   -1.0987 H   0  0  0  0  0  0  0  0  0  0  0  0
   -3.1033    1.2091   -1.5880 H   0  0  0  0  0  0  0  0  0  0  0  0
   -2.5193    1.9103    0.0181 H   0  0  0  0  0  0  0  0  0  0  0  0
   -2.3534   -2.0978   -0.8242 H   0  0  0  0  0  0  0  0  0  0  0  0
   -3.3236   -1.4998    1.2688 H   0  0  0  0  0  0  0  0  0  0  0  0
   -4.4207   -0.5048    0.2969 H   0  0  0  0  0  0  0  0  0  0  0  0
   -3.9337    1.2650    1.5671 H   0  0  0  0  0  0  0  0  0  0  0  0
   -0.9969    0.4262    1.3896 H   0  0  0  0  0  0  0  0  0  0  0  0
   -0.7081   -1.2952    0.8110 H   0  0  0  0  0  0  0  0  0  0  0  0
  1  2  1  0
  2  3  1  0
  3  4  1  0
  4  5  1  0
  5  6  1  0
  6  7  1  0
  7  8  1  0
  8  9  1  0
  9 10  1  6
  9 11  1  0
 11 12  1  0
  9 13  1  0
 13  6  1  0
  1 14  1  0
  1 15  1  0
  3 16  1  0
  3 17  1  0
  4 18  1  0
  4 19  1  0
  5 20  1  0
  5 21  1  0
  7 22  1  0
  7 23  1  0
  8 24  1  0
  8 25  1  0
 10 26  1  0
 11 27  1  0
 11 28  1  0
 12 29  1  0
 13 30  1  0
 13 31  1  0
M  END
$$$$

     RDKit          3D

 31 31  0  0  0  0  0  0  0  0999 V2000
    4.3267    1.5408    0.0145 N   0  0  0  0  0  0  0  0  0  0  0  0
    3.8050    0.8251    1.0007 O   0  0  0  0  0  0  0  0  0  0  0  0
    3.2892   -0.3759    0.5362 C   0  0  0  0  0  0  0  0  0  0  0  0
    1.9945   -0.1132   -0.2265 C   0  0  0  0  0  0  0  0  0  0  0  0
    0.9551   -1.1385    0.0394 C   0  0  0  0  0  0  0  0  0  0  0  0
   -0.1247   -0.6394    0.8750 N   0  0  0  0  0  0  0  0  0  0  0  0
   -1.1440   -1.6865    0.8695 C   0  0  0  0  0  0  0  0  0  0  0  0
   -2.2001   -1.1705   -0.1125 C   0  0  0  0  0  0  0  0  0  0  0  0
   -2.2331    0.2804    0.3792 C   0  0  2  0  0  0  0  0  0  0  0  0
   -2.7426    0.2398    1.6545 O   0  0  0  0  0  0  0  0  0  0  0  0
   -3.0262    1.0658   -0.6023 C   0  0  0  0  0  0  0  0  0  0  0  0
   -3.2153    2.3884   -0.2687 O   0  0  0  0  0  0  0  0  0  0  0  0
   -0.7419    0.5546    0.3351 C   0  0  0  0  0  0  0  0  0  0  0  0
    3.9930    1.1929   -0.9288 H   0  0  0  0  0  0  0  0  0  0  0  0
    5.3524    1.6584    0.0444 H   0  0  0  0  0  0  0  0  0  0  0  0
    4.0410   -0.9058   -0.0626 H   0  0  0  0  0  0  0  0  0  0  0  0
    3.0656   -1.0158    1.4150 H   0  0  0  0  0  0  0  0  0  0  0  0
    2.2801   -0.2569   -1.3229 H   0  0  0  0  0  0  0  0  0  0  0  0
    1.6706    0.9290   -0.1424 H   0  0  0  0  0  0  0  0  0  0  0  0
    0.5527   -1.6597   -0.8293 H   0  0  0  0  0  0  0  0  0  0  0  0
    1.4447   -1.9418    0.6787 H   0  0  0  0  0  0  0  0  0  0  0  0
   -1.6161   -1.6551    1.8606 H   0  0  0  0  0  0  0  0  0  0  0  0
   -0.7418   -2.6619    0.5754 H   0  0  0  0  0  0  0  0  0  0  0  0
   -1.7864   -1.2410   -1.1371 H   0  0  0  0  0  0  0  0  0  0  0  0
   -3.1635   -1.6760   -0.0036 H   0  0  0  0  0  0  0  0  0  0  0  0
   -3.0059    1.1004    2.0350 H   0  0  0  0  0  0  0  0  0  0  0  0
   -2.5249    1.0125   -1.5787 H   0  0  0  0  0  0  0  0  0  0  0  0
   -4.0218    0.5773   -0.7064 H   0  0  0  0  0  0  0  0  0  0  0  0
   -3.4262    2.5546    0.6748 H   0  0  0  0  0  0  0  0  0  0  0  0
   -0.5664    1.4575    0.9395 H   0  0  0  0  0  0  0  0  0  0  0  0
   -0.4897    0.7605   -0.7180 H   0  0  0  0  0  0  0  0  0  0  0  0
  1  2  1  0
  2  3  1  0
  3  4  1  0
  4  5  1  0
  5  6  1  0
  6  7  1  0
  7  8  1  0
  8  9  1  0
  9 10  1  1
  9 11  1  0
 11 12  1  0
  9 13  1  0
 13  6  1  0
  1 14  1  0
  1 15  1  0
  3 16  1  0
  3 17  1  0
  4 18  1  0
  4 19  1  0
  5 20  1  0
  5 21  1  0
  7 22  1  0
  7 23  1  0
  8 24  1  0
  8 25  1  0
 10 26  1  0
 11 27  1  0
 11 28  1  0
 12 29  1  0
 13 30  1  0
 13 31  1  0
M  END
$$$$
