
     RDKit          3D

 25 25  0  0  0  0  0  0  0  0999 V2000
   -0.7567   -2.1046   -0.9330 N   0  0  0  0  0  0  0  0  0  0  0  0
   -0.5011   -1.0709    0.0065 N   0  0  0  0  0  0  0  0  0  0  0  0
   -1.6117   -0.9658    0.8604 C   0  0  0  0  0  0  0  0  0  0  0  0
   -2.2653    0.3656    0.9488 C   0  0  0  0  0  0  0  0  0  0  0  0
   -1.2433    1.3311    1.0524 O   0  0  0  0  0  0  0  0  0  0  0  0
   -0.6353    1.3831   -0.1793 C   0  0  0  0  0  0  0  0  0  0  0  0
   -0.0256    0.0971   -0.6240 C   0  0  1  0  0  0  0  0  0  0  0  0
    1.4981    0.1546   -0.5531 C   0  0  1  0  0  0  0  0  0  0  0  0
    1.9331    1.3227   -1.1864 O   0  0  0  0  0  0  0  0  0  0  0  0
    1.9818    0.2260    0.8751 C   0  0  0  0  0  0  0  0  0  0  0  0
    3.3726    0.3065    0.8294 O   0  0  0  0  0  0  0  0  0  0  0  0
   -0.0041   -2.8012   -0.9620 H   0  0  0  0  0  0  0  0  0  0  0  0
   -1.0321   -1.7131   -1.8602 H   0  0  0  0  0  0  0  0  0  0  0  0
   -1.2906   -1.2531    1.9043 H   0  0  0  0  0  0  0  0  0  0  0  0
   -2.4177   -1.7196    0.6187 H   0  0  0  0  0  0  0  0  0  0  0  0
   -2.8644    0.4180    1.8865 H   0  0  0  0  0  0  0  0  0  0  0  0
   -2.9128    0.5672    0.0592 H   0  0  0  0  0  0  0  0  0  0  0  0
    0.1489    2.1913   -0.1160 H   0  0  0  0  0  0  0  0  0  0  0  0
   -1.3892    1.7790   -0.9081 H   0  0  0  0  0  0  0  0  0  0  0  0
   -0.2407    0.0017   -1.7309 H   0  0  0  0  0  0  0  0  0  0  0  0
    1.9222   -0.7323   -1.0202 H   0  0  0  0  0  0  0  0  0  0  0  0
    1.2307    1.6894   -1.7789 H   0  0  0  0  0  0  0  0  0  0  0  0
    1.6278    1.1643    1.3749 H   0  0  0  0  0  0  0  0  0  0  0  0
    1.7238   -0.6707    1.4619 H   0  0  0  0  0  0  0  0  0  0  0  0
    3.7517    0.0336   -0.0259 H   0  0  0  0  0  0  0  0  0  0  0  0
  1  2  1  0
  2  3  1  0
  3  4  1  0
  4  5  1  0
  5  6  1  0
  6  7  1  0
  7  8  1  0
  8  9  1  0
  8 10  1  0
 10 11  1  0
  7  2  1  0
  1 12  1  0
  1 13  1  0
  3 14  1  0
  3 15  1  0
  4 16  1  0
  4 17  1  0
  6 18  1  0
  6 19  1  0
  7 20  1  6
  8 21  1  6
  9 22  1  0
 10 23  1  0
 10 24  1  0
 11 25  1  0
M  END
$$$$

     RDKit          3D

 25 25  0  0  0  0  0  0  0  0999 V2000
   -0.9142    2.0962    0.1036 N   0  0  0  0  0  0  0  0  0  0  0  0
   -0.8496    0.7593   -0.1241 N   0  0  0  0  0  0  0  0  0  0  0  0
   -2.0661    0.0828   -0.3752 C   0  0  0  0  0  0  0  0  0  0  0  0
   -2.2373   -1.2463    0.2369 C   0  0  0  0  0  0  0  0  0  0  0  0
   -1.1225   -1.9950    0.4334 O   0  0  0  0  0  0  0  0  0  0  0  0
    0.0714   -1.3919    0.1170 C   0  0  0  0  0  0  0  0  0  0  0  0
    0.0196    0.0087    0.7300 C   0  0  1  0  0  0  0  0  0  0  0  0
    1.3776    0.5880    0.8963 C   0  0  1  0  0  0  0  0  0  0  0  0
    2.1032   -0.2532    1.7523 O   0  0  0  0  0  0  0  0  0  0  0  0
    2.1587    0.6627   -0.3964 C   0  0  0  0  0  0  0  0  0  0  0  0
    2.3208   -0.5636   -0.9927 O   0  0  0  0  0  0  0  0  0  0  0  0
   -0.5241    2.4388    0.9979 H   0  0  0  0  0  0  0  0  0  0  0  0
   -1.8990    2.4177    0.0198 H   0  0  0  0  0  0  0  0  0  0  0  0
   -2.9118    0.7430   -0.0216 H   0  0  0  0  0  0  0  0  0  0  0  0
   -2.2121    0.0427   -1.4933 H   0  0  0  0  0  0  0  0  0  0  0  0
   -2.9380   -1.8440   -0.4177 H   0  0  0  0  0  0  0  0  0  0  0  0
   -2.7875   -1.1648    1.2138 H   0  0  0  0  0  0  0  0  0  0  0  0
    0.9091   -1.9782    0.5087 H   0  0  0  0  0  0  0  0  0  0  0  0
    0.0978   -1.2870   -1.0017 H   0  0  0  0  0  0  0  0  0  0  0  0
   -0.4523   -0.0779    1.7184 H   0  0  0  0  0  0  0  0  0  0  0  0
    1.3047    1.5559    1.3887 H   0  0  0  0  0  0  0  0  0  0  0  0
    2.5516   -0.9858    1.2546 H   0  0  0  0  0  0  0  0  0  0  0  0
    3.1670    1.0545   -0.1384 H   0  0  0  0  0  0  0  0  0  0  0  0
    1.6512    1.3291   -1.1081 H   0  0  0  0  0  0  0  0  0  0  0  0
    3.1818   -0.9918   -0.7774 H   0  0  0  0  0  0  0  0  0  0  0  0
  1  2  1  0
  2  3  1  0
  3  4  1  0
  4  5  1  0
  5  6  1  0
  6  7  1  0
  7  8  1  0
  8  9  1  0
  8 10  1  0
 10 11  1  0
  7  2  1  0
  1 12  1  0
  1 13  1  0
  3 14  1  0
  3 15  1  0
  4 16  1  0
  4 17  1  0
  6 18  1  0
  6 19  1  0
  7 20  1  1
  8 21  1  1
  9 22  1  0
 10 23  1  0
 10 24  1  0
 11 25  1  0
M  END
$$$$

     RDKit          3D

 25 25  0  0  0  0  0  0  0  0999 V2000
   -1.2793    1.0729   -1.3929 N   0  0  0  0  0  0  0  0  0  0  0  0
   -0.6844    1.0828   -0.1478 N   0  0  0  0  0  0  0  0  0  0  0  0
   -1.6069    1.0995    0.9509 C   0  0  0  0  0  0  0  0  0  0  0  0
   -2.2015   -0.2526    1.2548 C   0  0  0  0  0  0  0  0  0  0  0  0
   -1.3088   -1.2838    1.1942 O   0  0  0  0  0  0  0  0  0  0  0  0
   -0.5092   -1.2851    0.0546 C   0  0  0  0  0  0  0  0  0  0  0  0
    0.2556    0.0052    0.0483 C   0  0  1  0  0  0  0  0  0  0  0  0
    1.3754    0.0396   -0.9619 C   0  0  1  0  0  0  0  0  0  0  0  0
    2.0202    1.2833   -0.7840 O   0  0  0  0  0  0  0  0  0  0  0  0
    2.4129   -1.0109   -0.5927 C   0  0  0  0  0  0  0  0  0  0  0  0
    2.8364   -0.8709    0.7111 O   0  0  0  0  0  0  0  0  0  0  0  0
   -2.0861    0.4272   -1.4783 H   0  0  0  0  0  0  0  0  0  0  0  0
   -1.3939    1.9837   -1.8366 H   0  0  0  0  0  0  0  0  0  0  0  0
   -1.0391    1.4204    1.8584 H   0  0  0  0  0  0  0  0  0  0  0  0
   -2.4415    1.8125    0.8265 H   0  0  0  0  0  0  0  0  0  0  0  0
   -2.5826   -0.1981    2.3061 H   0  0  0  0  0  0  0  0  0  0  0  0
   -3.0911   -0.3889    0.6169 H   0  0  0  0  0  0  0  0  0  0  0  0
    0.1513   -2.1598    0.1304 H   0  0  0  0  0  0  0  0  0  0  0  0
   -1.1302   -1.4265   -0.8535 H   0  0  0  0  0  0  0  0  0  0  0  0
    0.7046    0.1395    1.0537 H   0  0  0  0  0  0  0  0  0  0  0  0
    1.0491   -0.0439   -2.0005 H   0  0  0  0  0  0  0  0  0  0  0  0
    2.0225    1.4454    0.1855 H   0  0  0  0  0  0  0  0  0  0  0  0
    3.2577   -0.8547   -1.3002 H   0  0  0  0  0  0  0  0  0  0  0  0
    1.9944   -2.0297   -0.7248 H   0  0  0  0  0  0  0  0  0  0  0  0
    3.2745   -0.0072    0.8816 H   0  0  0  0  0  0  0  0  0  0  0  0
  1  2  1  0
  2  3  1  0
  3  4  1  0
  4  5  1  0
  5  6  1  0
  6  7  1  0
  7  8  1  0
  8  9  1  0
  8 10  1  0
 10 11  1  0
  7  2  1  0
  1 12  1  0
  1 13  1  0
  3 14  1  0
  3 15  1  0
  4 16  1  0
  4 17  1  0
  6 18  1  0
  6 19  1  0
  7 20  1  1
  8 21  1  6
  9 22  1  0
 10 23  1  0
 10 24  1  0
 11 25  1  0
M  END
$$$$

     RDKit          3D

 25 25  0  0  0  0  0  0  0  0999 V2000
   -0.2098    0.3778   -1.7937 N   0  0  0  0  0  0  0  0  0  0  0  0
   -0.4313   -0.1477   -0.5574 N   0  0  0  0  0  0  0  0  0  0  0  0
   -1.5851   -0.9380   -0.3711 C   0  0  0  0  0  0  0  0  0  0  0  0
   -2.6726   -0.0798    0.2363 C   0  0  0  0  0  0  0  0  0  0  0  0
   -2.2561    0.5835    1.3684 O   0  0  0  0  0  0  0  0  0  0  0  0
   -0.9448    0.4089    1.7011 C   0  0  0  0  0  0  0  0  0  0  0  0
    0.0086    0.6166    0.5560 C   0  0  1  0  0  0  0  0  0  0  0  0
    1.3857    0.1011    0.9279 C   0  0  1  0  0  0  0  0  0  0  0  0
    1.3425   -1.2510    1.2659 O   0  0  0  0  0  0  0  0  0  0  0  0
    2.3052    0.2904   -0.2741 C   0  0  0  0  0  0  0  0  0  0  0  0
    3.5686   -0.1659    0.1016 O   0  0  0  0  0  0  0  0  0  0  0  0
   -0.0583   -0.4098   -2.4705 H   0  0  0  0  0  0  0  0  0  0  0  0
   -0.9227    1.0601   -2.1277 H   0  0  0  0  0  0  0  0  0  0  0  0
   -1.3443   -1.7876    0.3082 H   0  0  0  0  0  0  0  0  0  0  0  0
   -1.9244   -1.3404   -1.3270 H   0  0  0  0  0  0  0  0  0  0  0  0
   -3.5812   -0.6620    0.4940 H   0  0  0  0  0  0  0  0  0  0  0  0
   -2.9940    0.6299   -0.5818 H   0  0  0  0  0  0  0  0  0  0  0  0
   -0.6836    1.1572    2.4832 H   0  0  0  0  0  0  0  0  0  0  0  0
   -0.7374   -0.5929    2.1755 H   0  0  0  0  0  0  0  0  0  0  0  0
    0.0590    1.6820    0.3228 H   0  0  0  0  0  0  0  0  0  0  0  0
    1.7408    0.6881    1.7713 H   0  0  0  0  0  0  0  0  0  0  0  0
    1.6392   -1.8344    0.5198 H   0  0  0  0  0  0  0  0  0  0  0  0
    2.3001    1.3384   -0.5970 H   0  0  0  0  0  0  0  0  0  0  0  0
    1.9609   -0.3309   -1.1227 H   0  0  0  0  0  0  0  0  0  0  0  0
    4.0349    0.6065    0.5251 H   0  0  0  0  0  0  0  0  0  0  0  0
  1  2  1  0
  2  3  1  0
  3  4  1  0
  4  5  1  0
  5  6  1  0
  6  7  1  0
  7  8  1  0
  8  9  1  0
  8 10  1  0
 10 11  1  0
  7  2  1  0
  1 12  1  0
  1 13  1  0
  3 14  1  0
  3 15  1  0
  4 16  1  0
  4 17  1  0
  6 18  1  0
  6 19  1  0
  7 20  1  6
  8 21  1  1
  9 22  1  0
 10 23  1  0
 10 24  1  0
 11 25  1  0
M  END
$$$$

     RDKit          3D

 25 25  0  0  0  0  0  0  0  0999 V2000
   -1.5313   -0.8899    1.7417 N   0  0  0  0  0  0  0  0  0  0  0  0
   -0.7548   -0.1058    0.9689 N   0  0  0  0  0  0  0  0  0  0  0  0
   -1.4254    1.0640    0.5358 C   0  0  0  0  0  0  0  0  0  0  0  0
   -1.7487    1.1381   -0.9136 C   0  0  0  0  0  0  0  0  0  0  0  0
   -0.6951    0.7476   -1.7160 O   0  0  0  0  0  0  0  0  0  0  0  0
   -0.4227   -0.5854   -1.4254 C   0  0  0  0  0  0  0  0  0  0  0  0
   -0.0090   -0.8169   -0.0094 C   0  0  1  0  0  0  0  0  0  0  0  0
    1.5039   -0.6353    0.1702 C   0  0  1  0  0  0  0  0  0  0  0  0
    2.1984   -1.3468   -0.8067 O   0  0  0  0  0  0  0  0  0  0  0  0
    1.8899    0.8203    0.0032 C   0  0  0  0  0  0  0  0  0  0  0  0
    3.2710    0.8890    0.1836 O   0  0  0  0  0  0  0  0  0  0  0  0
   -1.2357   -1.1102    2.6878 H   0  0  0  0  0  0  0  0  0  0  0  0
   -2.2061   -1.5129    1.2927 H   0  0  0  0  0  0  0  0  0  0  0  0
   -0.8915    2.0202    0.8105 H   0  0  0  0  0  0  0  0  0  0  0  0
   -2.4037    1.1430    1.0967 H   0  0  0  0  0  0  0  0  0  0  0  0
   -2.6331    0.5296   -1.2014 H   0  0  0  0  0  0  0  0  0  0  0  0
   -1.9956    2.1901   -1.1689 H   0  0  0  0  0  0  0  0  0  0  0  0
   -1.3841   -1.1541   -1.5813 H   0  0  0  0  0  0  0  0  0  0  0  0
    0.3152   -1.0376   -2.0994 H   0  0  0  0  0  0  0  0  0  0  0  0
   -0.1733   -1.9191    0.1896 H   0  0  0  0  0  0  0  0  0  0  0  0
    1.8095   -1.0165    1.1633 H   0  0  0  0  0  0  0  0  0  0  0  0
    1.9222   -2.2956   -0.7276 H   0  0  0  0  0  0  0  0  0  0  0  0
    1.4411    1.4591    0.7887 H   0  0  0  0  0  0  0  0  0  0  0  0
    1.6428    1.1396   -1.0240 H   0  0  0  0  0  0  0  0  0  0  0  0
    3.5162    1.2855    1.0412 H   0  0  0  0  0  0  0  0  0  0  0  0
  1  2  1  0
  2  3  1  0
  3  4  1  0
  4  5  1  0
  5  6  1  0
  6  7  1  0
  7  8  1  0
  8  9  1  0
  8 10  1  0
 10 11  1  0
  7  2  1  0
  1 12  1  0
  1 13  1  0
  3 14  1  0
  3 15  1  0
  4 16  1  0
  4 17  1  0
  6 18  1  0
  6 19  1  0
  7 20  1  1
  8 21  1  1
  9 22  1  0
 10 23  1  0
 10 24  1  0
 11 25  1  0
M  END
$$$$

     RDKit          3D

 25 25  0  0  0  0  0  0  0  0999 V2000
   -0.8457   -1.3624    1.5811 N   0  0  0  0  0  0  0  0  0  0  0  0
   -0.6059   -0.2450    0.7813 N   0  0  0  0  0  0  0  0  0  0  0  0
   -1.8788    0.4709    0.6691 C   0  0  0  0  0  0  0  0  0  0  0  0
   -1.7566    1.6817   -0.2311 C   0  0  0  0  0  0  0  0  0  0  0  0
   -0.8662    1.4839   -1.2767 O   0  0  0  0  0  0  0  0  0  0  0  0
   -0.8695    0.1279   -1.5971 C   0  0  0  0  0  0  0  0  0  0  0  0
   -0.0602   -0.5682   -0.4998 C   0  0  1  0  0  0  0  0  0  0  0  0
    1.3634   -0.0772   -0.6591 C   0  0  1  0  0  0  0  0  0  0  0  0
    1.4441    1.3005   -0.5220 O   0  0  0  0  0  0  0  0  0  0  0  0
    2.2690   -0.6721    0.4165 C   0  0  0  0  0  0  0  0  0  0  0  0
    3.5502   -0.1832    0.1551 O   0  0  0  0  0  0  0  0  0  0  0  0
   -0.2398   -2.1743    1.3358 H   0  0  0  0  0  0  0  0  0  0  0  0
   -1.8407   -1.5911    1.6711 H   0  0  0  0  0  0  0  0  0  0  0  0
   -2.1375    0.8028    1.6948 H   0  0  0  0  0  0  0  0  0  0  0  0
   -2.6800   -0.1990    0.3233 H   0  0  0  0  0  0  0  0  0  0  0  0
   -2.7675    1.8980   -0.6252 H   0  0  0  0  0  0  0  0  0  0  0  0
   -1.4738    2.5779    0.3852 H   0  0  0  0  0  0  0  0  0  0  0  0
   -1.9179   -0.2114   -1.6075 H   0  0  0  0  0  0  0  0  0  0  0  0
   -0.3683    0.0185   -2.5789 H   0  0  0  0  0  0  0  0  0  0  0  0
   -0.1104   -1.6515   -0.7303 H   0  0  0  0  0  0  0  0  0  0  0  0
    1.7669   -0.4293   -1.6280 H   0  0  0  0  0  0  0  0  0  0  0  0
    1.6157    1.5505    0.4179 H   0  0  0  0  0  0  0  0  0  0  0  0
    1.9538   -0.1743    1.3779 H   0  0  0  0  0  0  0  0  0  0  0  0
    2.2127   -1.7577    0.4625 H   0  0  0  0  0  0  0  0  0  0  0  0
    4.2429   -0.6161    0.6842 H   0  0  0  0  0  0  0  0  0  0  0  0
  1  2  1  0
  2  3  1  0
  3  4  1  0
  4  5  1  0
  5  6  1  0
  6  7  1  0
  7  8  1  0
  8  9  1  0
  8 10  1  0
 10 11  1  0
  7  2  1  0
  1 12  1  0
  1 13  1  0
  3 14  1  0
  3 15  1  0
  4 16  1  0
  4 17  1  0
  6 18  1  0
  6 19  1  0
  7 20  1  6
  8 21  1  6
  9 22  1  0
 10 23  1  0
 10 24  1  0
 11 25  1  0
M  END
$$$$

     RDKit          3D

 25 25  0  0  0  0  0  0  0  0999 V2000
   -0.3120    1.8829   -0.9517 N   0  0  0  0  0  0  0  0  0  0  0  0
   -0.4139    0.5026   -1.1620 N   0  0  0  0  0  0  0  0  0  0  0  0
   -1.7927    0.2044   -1.4322 C   0  0  0  0  0  0  0  0  0  0  0  0
   -2.5045    0.0544   -0.1007 C   0  0  0  0  0  0  0  0  0  0  0  0
   -2.1639   -1.1616    0.4542 O   0  0  0  0  0  0  0  0  0  0  0  0
   -0.8588   -1.4801    0.1655 C   0  0  0  0  0  0  0  0  0  0  0  0
    0.0198   -0.2382   -0.0105 C   0  0  1  0  0  0  0  0  0  0  0  0
    1.4370   -0.7334   -0.1342 C   0  0  1  0  0  0  0  0  0  0  0  0
    1.5692   -1.5726   -1.2338 O   0  0  0  0  0  0  0  0  0  0  0  0
    2.4301    0.3882   -0.2953 C   0  0  0  0  0  0  0  0  0  0  0  0
    2.3905    1.2952    0.7494 O   0  0  0  0  0  0  0  0  0  0  0  0
   -0.3570    2.1331    0.0643 H   0  0  0  0  0  0  0  0  0  0  0  0
   -0.9939    2.4257   -1.5057 H   0  0  0  0  0  0  0  0  0  0  0  0
   -2.2980    1.0200   -1.9939 H   0  0  0  0  0  0  0  0  0  0  0  0
   -1.8277   -0.7327   -2.0259 H   0  0  0  0  0  0  0  0  0  0  0  0
   -3.5954    0.1818   -0.2268 H   0  0  0  0  0  0  0  0  0  0  0  0
   -2.1616    0.8450    0.5913 H   0  0  0  0  0  0  0  0  0  0  0  0
   -0.4078   -2.0576    1.0027 H   0  0  0  0  0  0  0  0  0  0  0  0
   -0.7792   -2.0507   -0.7962 H   0  0  0  0  0  0  0  0  0  0  0  0
   -0.0749    0.3599    0.9103 H   0  0  0  0  0  0  0  0  0  0  0  0
    1.6977   -1.2816    0.7845 H   0  0  0  0  0  0  0  0  0  0  0  0
    1.9115   -2.4696   -0.9826 H   0  0  0  0  0  0  0  0  0  0  0  0
    3.4446   -0.0846   -0.2830 H   0  0  0  0  0  0  0  0  0  0  0  0
    2.3565    0.8853   -1.2961 H   0  0  0  0  0  0  0  0  0  0  0  0
    3.2843    1.6845    0.9525 H   0  0  0  0  0  0  0  0  0  0  0  0
  1  2  1  0
  2  3  1  0
  3  4  1  0
  4  5  1  0
  5  6  1  0
  6  7  1  0
  7  8  1  0
  8  9  1  0
  8 10  1  0
 10 11  1  0
  7  2  1  0
  1 12  1  0
  1 13  1  0
  3 14  1  0
  3 15  1  0
  4 16  1  0
  4 17  1  0
  6 18  1  0
  6 19  1  0
  7 20  1  1
  8 21  1  1
  9 22  1  0
 10 23  1  0
 10 24  1  0
 11 25  1  0
M  END
$$$$

     RDKit          3D

 25 25  0  0  0  0  0  0  0  0999 V2000
   -0.3857    0.6956    1.9933 N   0  0  0  0  0  0  0  0  0  0  0  0
   -0.5963    0.5522    0.6151 N   0  0  0  0  0  0  0  0  0  0  0  0
   -2.0200    0.2889    0.3488 C   0  0  0  0  0  0  0  0  0  0  0  0
   -2.2000    0.3962   -1.1479 C   0  0  0  0  0  0  0  0  0  0  0  0
   -0.9919    0.2449   -1.8071 O   0  0  0  0  0  0  0  0  0  0  0  0
   -0.2780   -0.8463   -1.2900 C   0  0  0  0  0  0  0  0  0  0  0  0
    0.1036   -0.6299    0.1493 C   0  0  1  0  0  0  0  0  0  0  0  0
    1.5811   -0.5589    0.3728 C   0  0  1  0  0  0  0  0  0  0  0  0
    2.1455   -1.7335   -0.1068 O   0  0  0  0  0  0  0  0  0  0  0  0
    2.2428    0.5914   -0.3261 C   0  0  0  0  0  0  0  0  0  0  0  0
    1.7295    1.8244    0.1014 O   0  0  0  0  0  0  0  0  0  0  0  0
   -0.8627   -0.0844    2.5077 H   0  0  0  0  0  0  0  0  0  0  0  0
   -0.8392    1.6081    2.2951 H   0  0  0  0  0  0  0  0  0  0  0  0
   -2.6714    0.9573    0.9188 H   0  0  0  0  0  0  0  0  0  0  0  0
   -2.2007   -0.7913    0.6042 H   0  0  0  0  0  0  0  0  0  0  0  0
   -2.6329    1.3855   -1.3533 H   0  0  0  0  0  0  0  0  0  0  0  0
   -2.9611   -0.3560   -1.5000 H   0  0  0  0  0  0  0  0  0  0  0  0
   -0.9450   -1.7309   -1.4010 H   0  0  0  0  0  0  0  0  0  0  0  0
    0.5982   -1.0302   -1.9428 H   0  0  0  0  0  0  0  0  0  0  0  0
   -0.2851   -1.4799    0.7474 H   0  0  0  0  0  0  0  0  0  0  0  0
    1.7617   -0.4639    1.4517 H   0  0  0  0  0  0  0  0  0  0  0  0
    1.8490   -2.4658    0.5137 H   0  0  0  0  0  0  0  0  0  0  0  0
    2.2591    0.4988   -1.4252 H   0  0  0  0  0  0  0  0  0  0  0  0
    3.3148    0.5918   -0.0051 H   0  0  0  0  0  0  0  0  0  0  0  0
    2.2847    2.5358   -0.3140 H   0  0  0  0  0  0  0  0  0  0  0  0
  1  2  1  0
  2  3  1  0
  3  4  1  0
  4  5  1  0
  5  6  1  0
  6  7  1  0
  7  8  1  0
  8  9  1  0
  8 10  1  0
 10 11  1  0
  7  2  1  0
  1 12  1  0
  1 13  1  0
  3 14  1  0
  3 15  1  0
  4 16  1  0
  4 17  1  0
  6 18  1  0
  6 19  1  0
  7 20  1  1
  8 21  1  1
  9 22  1  0
 10 23  1  0
 10 24  1  0
 11 25  1  0
M  END
$$$$
