
     RDKit          3D

 29 28  0  0  0  0  0  0  0  0999 V2000
   -1.3083   -1.4232    0.3739 C   0  0  0  0  0  0  0  0  0  0  0  0
   -0.9907   -0.0214   -0.0480 C   0  0  2  0  0  0  0  0  0  0  0  0
   -2.2199    0.5283   -0.7745 C   0  0  0  0  0  0  0  0  0  0  0  0
   -3.3673    0.4968    0.1890 C   0  0  0  0  0  0  0  0  0  0  0  0
   -4.5726    1.0136   -0.4445 N   0  0  0  0  0  0  0  0  0  0  0  0
    0.1928    0.1305   -0.8316 N   0  0  0  0  0  0  0  0  0  0  0  0
    1.3920   -0.2402   -0.1508 C   0  0  0  0  0  0  0  0  0  0  0  0
    2.5964   -0.0313   -1.0554 C   0  0  0  0  0  0  0  0  0  0  0  0
    4.0313   -0.5065   -0.1489 S   0  0  0  0  0  6  0  0  0  0  0  0
    4.2605    0.4007    1.2752 N   0  0  0  0  0  0  0  0  0  0  0  0
    5.2757   -0.3379   -1.0060 O   0  0  0  0  0  0  0  0  0  0  0  0
    3.8909   -1.9513    0.2311 O   0  0  0  0  0  0  0  0  0  0  0  0
   -1.8875   -1.3701    1.3305 H   0  0  0  0  0  0  0  0  0  0  0  0
   -2.0215   -1.8572   -0.3772 H   0  0  0  0  0  0  0  0  0  0  0  0
   -0.4517   -2.0699    0.5659 H   0  0  0  0  0  0  0  0  0  0  0  0
   -0.8964    0.5954    0.8744 H   0  0  0  0  0  0  0  0  0  0  0  0
   -2.4391   -0.2149   -1.5925 H   0  0  0  0  0  0  0  0  0  0  0  0
   -2.0232    1.5232   -1.1810 H   0  0  0  0  0  0  0  0  0  0  0  0
   -3.1487    1.1505    1.0502 H   0  0  0  0  0  0  0  0  0  0  0  0
   -3.5542   -0.5503    0.5084 H   0  0  0  0  0  0  0  0  0  0  0  0
   -4.5180    2.0535   -0.4606 H   0  0  0  0  0  0  0  0  0  0  0  0
   -4.6721    0.5835   -1.3761 H   0  0  0  0  0  0  0  0  0  0  0  0
    0.2418    1.0768   -1.2240 H   0  0  0  0  0  0  0  0  0  0  0  0
    1.5242    0.3258    0.7754 H   0  0  0  0  0  0  0  0  0  0  0  0
    1.3536   -1.3450    0.0448 H   0  0  0  0  0  0  0  0  0  0  0  0
    2.5402   -0.6293   -1.9676 H   0  0  0  0  0  0  0  0  0  0  0  0
    2.7169    1.0426   -1.3369 H   0  0  0  0  0  0  0  0  0  0  0  0
    4.4689    1.4089    1.1079 H   0  0  0  0  0  0  0  0  0  0  0  0
    3.5860    0.2182    2.0328 H   0  0  0  0  0  0  0  0  0  0  0  0
  1  2  1  0
  2  3  1  0
  3  4  1  0
  4  5  1  0
  2  6  1  0
  6  7  1  0
  7  8  1  0
  8  9  1  0
  9 10  1  0
  9 11  2  0
  9 12  2  0
  1 13  1  0
  1 14  1  0
  1 15  1  0
  2 16  1  1
  3 17  1  0
  3 18  1  0
  4 19  1  0
  4 20  1  0
  5 21  1  0
  5 22  1  0
  6 23  1  0
  7 24  1  0
  7 25  1  0
  8 26  1  0
  8 27  1  0
 10 28  1  0
 10 29  1  0
M  END
$$$$

     RDKit          3D

 29 28  0  0  0  0  0  0  0  0999 V2000
   -1.3730   -1.4268   -0.6350 C   0  0  0  0  0  0  0  0  0  0  0  0
   -1.1569   -0.2377    0.2429 C   0  0  2  0  0  0  0  0  0  0  0  0
   -2.2130    0.8238    0.0673 C   0  0  0  0  0  0  0  0  0  0  0  0
   -3.5969    0.3067    0.3908 C   0  0  0  0  0  0  0  0  0  0  0  0
   -4.5884    1.3502    0.2135 N   0  0  0  0  0  0  0  0  0  0  0  0
    0.1141    0.3770   -0.0755 N   0  0  0  0  0  0  0  0  0  0  0  0
    1.2436   -0.4934    0.1749 C   0  0  0  0  0  0  0  0  0  0  0  0
    2.5045    0.2872   -0.1843 C   0  0  0  0  0  0  0  0  0  0  0  0
    3.9439   -0.7046    0.0945 S   0  0  0  0  0  6  0  0  0  0  0  0
    5.3201    0.2594   -0.3341 N   0  0  0  0  0  0  0  0  0  0  0  0
    4.0688   -1.0305    1.5617 O   0  0  0  0  0  0  0  0  0  0  0  0
    3.8818   -1.9500   -0.7370 O   0  0  0  0  0  0  0  0  0  0  0  0
   -1.3020   -1.1589   -1.7065 H   0  0  0  0  0  0  0  0  0  0  0  0
   -0.5933   -2.1864   -0.4352 H   0  0  0  0  0  0  0  0  0  0  0  0
   -2.3422   -1.9469   -0.4028 H   0  0  0  0  0  0  0  0  0  0  0  0
   -1.1330   -0.6066    1.2936 H   0  0  0  0  0  0  0  0  0  0  0  0
   -1.9755    1.6708    0.7381 H   0  0  0  0  0  0  0  0  0  0  0  0
   -2.2271    1.2175   -0.9674 H   0  0  0  0  0  0  0  0  0  0  0  0
   -3.6711   -0.0222    1.4511 H   0  0  0  0  0  0  0  0  0  0  0  0
   -3.9021   -0.5347   -0.2300 H   0  0  0  0  0  0  0  0  0  0  0  0
   -5.1248    1.2171   -0.6678 H   0  0  0  0  0  0  0  0  0  0  0  0
   -4.1157    2.2834    0.1554 H   0  0  0  0  0  0  0  0  0  0  0  0
    0.2520    1.2241    0.5210 H   0  0  0  0  0  0  0  0  0  0  0  0
    1.2851   -0.8006    1.2412 H   0  0  0  0  0  0  0  0  0  0  0  0
    1.2614   -1.3784   -0.5080 H   0  0  0  0  0  0  0  0  0  0  0  0
    2.4418    0.4844   -1.2631 H   0  0  0  0  0  0  0  0  0  0  0  0
    2.5735    1.2284    0.3729 H   0  0  0  0  0  0  0  0  0  0  0  0
    5.2732    1.1137    0.2877 H   0  0  0  0  0  0  0  0  0  0  0  0
    5.1514    0.6342   -1.3111 H   0  0  0  0  0  0  0  0  0  0  0  0
  1  2  1  0
  2  3  1  0
  3  4  1  0
  4  5  1  0
  2  6  1  0
  6  7  1  0
  7  8  1  0
  8  9  1  0
  9 10  1  0
  9 11  2  0
  9 12  2  0
  1 13  1  0
  1 14  1  0
  1 15  1  0
  2 16  1  1
  3 17  1  0
  3 18  1  0
  4 19  1  0
  4 20  1  0
  5 21  1  0
  5 22  1  0
  6 23  1  0
  7 24  1  0
  7 25  1  0
  8 26  1  0
  8 27  1  0
 10 28  1  0
 10 29  1  0
M  END
$$$$

     RDKit          3D

 29 28  0  0  0  0  0  0  0  0999 V2000
   -1.3845    0.0463   -1.3441 C   0  0  0  0  0  0  0  0  0  0  0  0
   -0.8791    0.1062    0.0631 C   0  0  2  0  0  0  0  0  0  0  0  0
   -1.9891    0.5255    1.0305 C   0  0  0  0  0  0  0  0  0  0  0  0
   -3.0884   -0.4842    0.9447 C   0  0  0  0  0  0  0  0  0  0  0  0
   -4.1921   -0.1860    1.8289 N   0  0  0  0  0  0  0  0  0  0  0  0
    0.1715    1.0577    0.1816 N   0  0  0  0  0  0  0  0  0  0  0  0
    1.3663    0.8040   -0.5601 C   0  0  0  0  0  0  0  0  0  0  0  0
    2.0514   -0.4213    0.0321 C   0  0  0  0  0  0  0  0  0  0  0  0
    3.5656   -0.7950   -0.8414 S   0  0  0  0  0  6  0  0  0  0  0  0
    4.6645    0.5133   -0.7547 N   0  0  0  0  0  0  0  0  0  0  0  0
    3.2989   -1.1091   -2.2852 O   0  0  0  0  0  0  0  0  0  0  0  0
    4.1485   -2.0122   -0.1663 O   0  0  0  0  0  0  0  0  0  0  0  0
   -2.0348   -0.8550   -1.4975 H   0  0  0  0  0  0  0  0  0  0  0  0
   -0.5508   -0.0803   -2.0584 H   0  0  0  0  0  0  0  0  0  0  0  0
   -1.9753    0.9741   -1.5395 H   0  0  0  0  0  0  0  0  0  0  0  0
   -0.5180   -0.9000    0.3997 H   0  0  0  0  0  0  0  0  0  0  0  0
   -2.3284    1.5524    0.8088 H   0  0  0  0  0  0  0  0  0  0  0  0
   -1.5729    0.5329    2.0486 H   0  0  0  0  0  0  0  0  0  0  0  0
   -2.6790   -1.4845    1.1856 H   0  0  0  0  0  0  0  0  0  0  0  0
   -3.5093   -0.4891   -0.1003 H   0  0  0  0  0  0  0  0  0  0  0  0
   -3.9929   -0.3882    2.8341 H   0  0  0  0  0  0  0  0  0  0  0  0
   -4.6169    0.7296    1.6511 H   0  0  0  0  0  0  0  0  0  0  0  0
   -0.1197    2.0525    0.1202 H   0  0  0  0  0  0  0  0  0  0  0  0
    2.0542    1.6746   -0.3808 H   0  0  0  0  0  0  0  0  0  0  0  0
    1.2153    0.7347   -1.6366 H   0  0  0  0  0  0  0  0  0  0  0  0
    2.3327   -0.2275    1.0833 H   0  0  0  0  0  0  0  0  0  0  0  0
    1.3923   -1.2948   -0.0502 H   0  0  0  0  0  0  0  0  0  0  0  0
    4.3212    1.3353   -1.2608 H   0  0  0  0  0  0  0  0  0  0  0  0
    4.8486    0.7282    0.2637 H   0  0  0  0  0  0  0  0  0  0  0  0
  1  2  1  0
  2  3  1  0
  3  4  1  0
  4  5  1  0
  2  6  1  0
  6  7  1  0
  7  8  1  0
  8  9  1  0
  9 10  1  0
  9 11  2  0
  9 12  2  0
  1 13  1  0
  1 14  1  0
  1 15  1  0
  2 16  1  1
  3 17  1  0
  3 18  1  0
  4 19  1  0
  4 20  1  0
  5 21  1  0
  5 22  1  0
  6 23  1  0
  7 24  1  0
  7 25  1  0
  8 26  1  0
  8 27  1  0
 10 28  1  0
 10 29  1  0
M  END
$$$$

     RDKit          3D

 29 28  0  0  0  0  0  0  0  0999 V2000
   -1.0450   -1.2844    0.9352 C   0  0  0  0  0  0  0  0  0  0  0  0
   -0.9501    0.2106    0.8967 C   0  0  2  0  0  0  0  0  0  0  0  0
   -2.3259    0.8684    0.7584 C   0  0  0  0  0  0  0  0  0  0  0  0
   -3.0118    0.4327   -0.4927 C   0  0  0  0  0  0  0  0  0  0  0  0
   -4.3122    1.0843   -0.5566 N   0  0  0  0  0  0  0  0  0  0  0  0
   -0.0056    0.7595    0.0049 N   0  0  0  0  0  0  0  0  0  0  0  0
    1.3665    0.5327    0.2049 C   0  0  0  0  0  0  0  0  0  0  0  0
    1.9172   -0.8320   -0.0006 C   0  0  0  0  0  0  0  0  0  0  0  0
    3.6777   -0.8159    0.3078 S   0  0  0  0  0  6  0  0  0  0  0  0
    4.4916    0.2670   -0.7469 N   0  0  0  0  0  0  0  0  0  0  0  0
    3.8734   -0.3299    1.7187 O   0  0  0  0  0  0  0  0  0  0  0  0
    4.1988   -2.1937    0.1883 O   0  0  0  0  0  0  0  0  0  0  0  0
   -2.1312   -1.5405    1.1042 H   0  0  0  0  0  0  0  0  0  0  0  0
   -0.5188   -1.7267    1.8128 H   0  0  0  0  0  0  0  0  0  0  0  0
   -0.7300   -1.7601   -0.0086 H   0  0  0  0  0  0  0  0  0  0  0  0
   -0.6256    0.5359    1.9394 H   0  0  0  0  0  0  0  0  0  0  0  0
   -2.1450    1.9573    0.7139 H   0  0  0  0  0  0  0  0  0  0  0  0
   -2.9189    0.5662    1.6598 H   0  0  0  0  0  0  0  0  0  0  0  0
   -2.3763    0.6926   -1.3736 H   0  0  0  0  0  0  0  0  0  0  0  0
   -3.1742   -0.6720   -0.5422 H   0  0  0  0  0  0  0  0  0  0  0  0
   -4.5601    1.4280    0.4110 H   0  0  0  0  0  0  0  0  0  0  0  0
   -5.0371    0.3888   -0.8758 H   0  0  0  0  0  0  0  0  0  0  0  0
   -0.2833    0.7994   -1.0000 H   0  0  0  0  0  0  0  0  0  0  0  0
    1.9576    1.2171   -0.4732 H   0  0  0  0  0  0  0  0  0  0  0  0
    1.6964    0.8399    1.2508 H   0  0  0  0  0  0  0  0  0  0  0  0
    1.7549   -1.1862   -1.0496 H   0  0  0  0  0  0  0  0  0  0  0  0
    1.5145   -1.5953    0.6730 H   0  0  0  0  0  0  0  0  0  0  0  0
    5.5199    0.1191   -0.7609 H   0  0  0  0  0  0  0  0  0  0  0  0
    4.1824    1.2373   -0.6603 H   0  0  0  0  0  0  0  0  0  0  0  0
  1  2  1  0
  2  3  1  0
  3  4  1  0
  4  5  1  0
  2  6  1  0
  6  7  1  0
  7  8  1  0
  8  9  1  0
  9 10  1  0
  9 11  2  0
  9 12  2  0
  1 13  1  0
  1 14  1  0
  1 15  1  0
  2 16  1  1
  3 17  1  0
  3 18  1  0
  4 19  1  0
  4 20  1  0
  5 21  1  0
  5 22  1  0
  6 23  1  0
  7 24  1  0
  7 25  1  0
  8 26  1  0
  8 27  1  0
 10 28  1  0
 10 29  1  0
M  END
$$$$

     RDKit          3D

 29 28  0  0  0  0  0  0  0  0999 V2000
   -1.0380   -1.2177    1.3575 C   0  0  0  0  0  0  0  0  0  0  0  0
   -0.9459    0.1140    0.6944 C   0  0  2  0  0  0  0  0  0  0  0  0
   -2.2476    0.7679    0.3758 C   0  0  0  0  0  0  0  0  0  0  0  0
   -3.1558    0.0294   -0.5371 C   0  0  0  0  0  0  0  0  0  0  0  0
   -4.3666    0.8423   -0.7197 N   0  0  0  0  0  0  0  0  0  0  0  0
   -0.0492    0.1370   -0.4376 N   0  0  0  0  0  0  0  0  0  0  0  0
    1.3106   -0.1357   -0.0782 C   0  0  0  0  0  0  0  0  0  0  0  0
    2.2168   -0.0750   -1.3159 C   0  0  0  0  0  0  0  0  0  0  0  0
    3.9034   -0.4037   -0.8009 S   0  0  0  0  0  6  0  0  0  0  0  0
    4.3713    0.8146    0.3531 N   0  0  0  0  0  0  0  0  0  0  0  0
    4.8211   -0.3757   -1.9711 O   0  0  0  0  0  0  0  0  0  0  0  0
    3.9841   -1.7473   -0.1464 O   0  0  0  0  0  0  0  0  0  0  0  0
   -1.6345   -1.1173    2.2941 H   0  0  0  0  0  0  0  0  0  0  0  0
   -0.0245   -1.5176    1.6912 H   0  0  0  0  0  0  0  0  0  0  0  0
   -1.4075   -2.0386    0.7057 H   0  0  0  0  0  0  0  0  0  0  0  0
   -0.4496    0.7949    1.4562 H   0  0  0  0  0  0  0  0  0  0  0  0
   -2.0223    1.7633   -0.0809 H   0  0  0  0  0  0  0  0  0  0  0  0
   -2.8241    1.0039    1.3129 H   0  0  0  0  0  0  0  0  0  0  0  0
   -3.4951   -0.9423   -0.1888 H   0  0  0  0  0  0  0  0  0  0  0  0
   -2.6984   -0.0456   -1.5528 H   0  0  0  0  0  0  0  0  0  0  0  0
   -4.7883    0.7212   -1.6598 H   0  0  0  0  0  0  0  0  0  0  0  0
   -5.0142    0.7913    0.0726 H   0  0  0  0  0  0  0  0  0  0  0  0
   -0.4017   -0.4374   -1.2372 H   0  0  0  0  0  0  0  0  0  0  0  0
    1.6599    0.6104    0.6340 H   0  0  0  0  0  0  0  0  0  0  0  0
    1.3748   -1.1914    0.2692 H   0  0  0  0  0  0  0  0  0  0  0  0
    2.1608    0.9248   -1.7854 H   0  0  0  0  0  0  0  0  0  0  0  0
    1.9240   -0.8493   -2.0504 H   0  0  0  0  0  0  0  0  0  0  0  0
    5.2379    1.2614    0.0106 H   0  0  0  0  0  0  0  0  0  0  0  0
    3.5989    1.5183    0.4486 H   0  0  0  0  0  0  0  0  0  0  0  0
  1  2  1  0
  2  3  1  0
  3  4  1  0
  4  5  1  0
  2  6  1  0
  6  7  1  0
  7  8  1  0
  8  9  1  0
  9 10  1  0
  9 11  2  0
  9 12  2  0
  1 13  1  0
  1 14  1  0
  1 15  1  0
  2 16  1  1
  3 17  1  0
  3 18  1  0
  4 19  1  0
  4 20  1  0
  5 21  1  0
  5 22  1  0
  6 23  1  0
  7 24  1  0
  7 25  1  0
  8 26  1  0
  8 27  1  0
 10 28  1  0
 10 29  1  0
M  END
$$$$

     RDKit          3D

 29 28  0  0  0  0  0  0  0  0999 V2000
   -1.3539   -2.0796    0.9768 C   0  0  0  0  0  0  0  0  0  0  0  0
   -1.3464   -0.5457    0.7057 C   0  0  2  0  0  0  0  0  0  0  0  0
   -2.2518   -0.3250   -0.4392 C   0  0  0  0  0  0  0  0  0  0  0  0
   -2.3864    1.1167   -0.8442 C   0  0  0  0  0  0  0  0  0  0  0  0
   -2.9166    1.9830    0.1630 N   0  0  0  0  0  0  0  0  0  0  0  0
    0.0048   -0.1339    0.6339 N   0  0  0  0  0  0  0  0  0  0  0  0
    0.7929   -0.5775   -0.4518 C   0  0  0  0  0  0  0  0  0  0  0  0
    2.2473   -0.4051   -0.3642 C   0  0  0  0  0  0  0  0  0  0  0  0
    2.9764    1.1413   -0.1443 S   0  0  0  0  0  6  0  0  0  0  0  0
    4.7271    0.9455   -0.0903 N   0  0  0  0  0  0  0  0  0  0  0  0
    2.7368    2.0871   -1.2870 O   0  0  0  0  0  0  0  0  0  0  0  0
    2.6297    1.8951    1.0990 O   0  0  0  0  0  0  0  0  0  0  0  0
   -2.3460   -2.3795    1.3459 H   0  0  0  0  0  0  0  0  0  0  0  0
   -1.0085   -2.6488    0.1070 H   0  0  0  0  0  0  0  0  0  0  0  0
   -0.6470   -2.1922    1.8253 H   0  0  0  0  0  0  0  0  0  0  0  0
   -1.8110   -0.1135    1.6111 H   0  0  0  0  0  0  0  0  0  0  0  0
   -2.0858   -0.9401   -1.3299 H   0  0  0  0  0  0  0  0  0  0  0  0
   -3.2843   -0.6368   -0.0793 H   0  0  0  0  0  0  0  0  0  0  0  0
   -1.4250    1.4990   -1.2562 H   0  0  0  0  0  0  0  0  0  0  0  0
   -3.1000    1.1226   -1.7252 H   0  0  0  0  0  0  0  0  0  0  0  0
   -3.5759    2.6672   -0.3214 H   0  0  0  0  0  0  0  0  0  0  0  0
   -3.4895    1.4863    0.8687 H   0  0  0  0  0  0  0  0  0  0  0  0
    0.4537   -0.4993    1.5186 H   0  0  0  0  0  0  0  0  0  0  0  0
    0.4974   -1.6122   -0.7097 H   0  0  0  0  0  0  0  0  0  0  0  0
    0.4965   -0.0114   -1.4080 H   0  0  0  0  0  0  0  0  0  0  0  0
    2.7477   -0.8473   -1.2923 H   0  0  0  0  0  0  0  0  0  0  0  0
    2.6343   -1.1095    0.4446 H   0  0  0  0  0  0  0  0  0  0  0  0
    4.9743   -0.0495   -0.3847 H   0  0  0  0  0  0  0  0  0  0  0  0
    5.1094    1.1632    0.8284 H   0  0  0  0  0  0  0  0  0  0  0  0
  1  2  1  0
  2  3  1  0
  3  4  1  0
  4  5  1  0
  2  6  1  0
  6  7  1  0
  7  8  1  0
  8  9  1  0
  9 10  1  0
  9 11  2  0
  9 12  2  0
  1 13  1  0
  1 14  1  0
  1 15  1  0
  2 16  1  1
  3 17  1  0
  3 18  1  0
  4 19  1  0
  4 20  1  0
  5 21  1  0
  5 22  1  0
  6 23  1  0
  7 24  1  0
  7 25  1  0
  8 26  1  0
  8 27  1  0
 10 28  1  0
 10 29  1  0
M  END
$$$$

     RDKit          3D

 29 28  0  0  0  0  0  0  0  0999 V2000
   -0.5835    2.1097   -0.9921 C   0  0  0  0  0  0  0  0  0  0  0  0
   -0.9846    0.6878   -0.6199 C   0  0  2  0  0  0  0  0  0  0  0  0
   -2.4844    0.7310   -0.4662 C   0  0  0  0  0  0  0  0  0  0  0  0
   -3.1588   -0.5347   -0.1105 C   0  0  0  0  0  0  0  0  0  0  0  0
   -2.7890   -1.1360    1.1350 N   0  0  0  0  0  0  0  0  0  0  0  0
   -0.3248    0.2578    0.5868 N   0  0  0  0  0  0  0  0  0  0  0  0
    1.1224    0.2387    0.4660 C   0  0  0  0  0  0  0  0  0  0  0  0
    1.6215   -0.8290   -0.4656 C   0  0  0  0  0  0  0  0  0  0  0  0
    3.3739   -0.8625   -0.6158 S   0  0  0  0  0  6  0  0  0  0  0  0
    4.1793   -1.1423    0.8558 N   0  0  0  0  0  0  0  0  0  0  0  0
    3.8824    0.4119   -1.2350 O   0  0  0  0  0  0  0  0  0  0  0  0
    3.7541   -1.9824   -1.5641 O   0  0  0  0  0  0  0  0  0  0  0  0
   -0.0850    2.0778   -1.9939 H   0  0  0  0  0  0  0  0  0  0  0  0
    0.0784    2.5786   -0.2725 H   0  0  0  0  0  0  0  0  0  0  0  0
   -1.4523    2.7834   -1.1336 H   0  0  0  0  0  0  0  0  0  0  0  0
   -0.7298   -0.0063   -1.4353 H   0  0  0  0  0  0  0  0  0  0  0  0
   -2.7509    1.5115    0.2906 H   0  0  0  0  0  0  0  0  0  0  0  0
   -2.9634    1.1224   -1.4125 H   0  0  0  0  0  0  0  0  0  0  0  0
   -4.2592   -0.2880    0.0017 H   0  0  0  0  0  0  0  0  0  0  0  0
   -3.1512   -1.2916   -0.9283 H   0  0  0  0  0  0  0  0  0  0  0  0
   -2.9025   -2.1723    1.1465 H   0  0  0  0  0  0  0  0  0  0  0  0
   -3.2838   -0.6687    1.9271 H   0  0  0  0  0  0  0  0  0  0  0  0
   -0.5669   -0.7755    0.7196 H   0  0  0  0  0  0  0  0  0  0  0  0
    1.5317    1.2397    0.2320 H   0  0  0  0  0  0  0  0  0  0  0  0
    1.5049   -0.0117    1.4792 H   0  0  0  0  0  0  0  0  0  0  0  0
    1.3058   -1.8403   -0.1335 H   0  0  0  0  0  0  0  0  0  0  0  0
    1.1870   -0.6550   -1.4685 H   0  0  0  0  0  0  0  0  0  0  0  0
    5.1810   -0.8472    0.7469 H   0  0  0  0  0  0  0  0  0  0  0  0
    3.7479   -0.7068    1.6798 H   0  0  0  0  0  0  0  0  0  0  0  0
  1  2  1  0
  2  3  1  0
  3  4  1  0
  4  5  1  0
  2  6  1  0
  6  7  1  0
  7  8  1  0
  8  9  1  0
  9 10  1  0
  9 11  2  0
  9 12  2  0
  1 13  1  0
  1 14  1  0
  1 15  1  0
  2 16  1  6
  3 17  1  0
  3 18  1  0
  4 19  1  0
  4 20  1  0
  5 21  1  0
  5 22  1  0
  6 23  1  0
  7 24  1  0
  7 25  1  0
  8 26  1  0
  8 27  1  0
 10 28  1  0
 10 29  1  0
M  END
$$$$

     RDKit          3D

 29 28  0  0  0  0  0  0  0  0999 V2000
    0.6896   -2.0686   -0.8714 C   0  0  0  0  0  0  0  0  0  0  0  0
    1.1379   -0.6527   -0.6363 C   0  0  2  0  0  0  0  0  0  0  0  0
    2.4925   -0.5913    0.0409 C   0  0  0  0  0  0  0  0  0  0  0  0
    2.8465    0.8732    0.2298 C   0  0  0  0  0  0  0  0  0  0  0  0
    4.1415    0.9880    0.8756 N   0  0  0  0  0  0  0  0  0  0  0  0
    0.1996    0.0518    0.2125 N   0  0  0  0  0  0  0  0  0  0  0  0
   -1.1016    0.1435   -0.4250 C   0  0  0  0  0  0  0  0  0  0  0  0
   -1.9932    0.8963    0.5422 C   0  0  0  0  0  0  0  0  0  0  0  0
   -3.6347    1.1087   -0.0657 S   0  0  0  0  0  6  0  0  0  0  0  0
   -4.4305   -0.3701   -0.3775 N   0  0  0  0  0  0  0  0  0  0  0  0
   -4.4056    1.8793    0.9726 O   0  0  0  0  0  0  0  0  0  0  0  0
   -3.5938    1.9052   -1.3457 O   0  0  0  0  0  0  0  0  0  0  0  0
   -0.1233   -2.3442   -0.1746 H   0  0  0  0  0  0  0  0  0  0  0  0
    1.5238   -2.8057   -0.6968 H   0  0  0  0  0  0  0  0  0  0  0  0
    0.3382   -2.2036   -1.9131 H   0  0  0  0  0  0  0  0  0  0  0  0
    1.1993   -0.1181   -1.6080 H   0  0  0  0  0  0  0  0  0  0  0  0
    3.2356   -1.0829   -0.6332 H   0  0  0  0  0  0  0  0  0  0  0  0
    2.4471   -1.1053    1.0102 H   0  0  0  0  0  0  0  0  0  0  0  0
    2.8153    1.4086   -0.7372 H   0  0  0  0  0  0  0  0  0  0  0  0
    2.0789    1.3148    0.8852 H   0  0  0  0  0  0  0  0  0  0  0  0
    4.7952    1.4221    0.1904 H   0  0  0  0  0  0  0  0  0  0  0  0
    4.0784    1.5370    1.7655 H   0  0  0  0  0  0  0  0  0  0  0  0
    0.0755   -0.4652    1.1047 H   0  0  0  0  0  0  0  0  0  0  0  0
   -0.9743    0.6922   -1.3765 H   0  0  0  0  0  0  0  0  0  0  0  0
   -1.4842   -0.8563   -0.6477 H   0  0  0  0  0  0  0  0  0  0  0  0
   -1.5516    1.9074    0.6618 H   0  0  0  0  0  0  0  0  0  0  0  0
   -2.0107    0.3782    1.5203 H   0  0  0  0  0  0  0  0  0  0  0  0
   -4.9402   -0.7561    0.4312 H   0  0  0  0  0  0  0  0  0  0  0  0
   -3.8515   -1.0863   -0.8272 H   0  0  0  0  0  0  0  0  0  0  0  0
  1  2  1  0
  2  3  1  0
  3  4  1  0
  4  5  1  0
  2  6  1  0
  6  7  1  0
  7  8  1  0
  8  9  1  0
  9 10  1  0
  9 11  2  0
  9 12  2  0
  1 13  1  0
  1 14  1  0
  1 15  1  0
  2 16  1  6
  3 17  1  0
  3 18  1  0
  4 19  1  0
  4 20  1  0
  5 21  1  0
  5 22  1  0
  6 23  1  0
  7 24  1  0
  7 25  1  0
  8 26  1  0
  8 27  1  0
 10 28  1  0
 10 29  1  0
M  END
$$$$
