
     RDKit          3D

 25 24  0  0  0  0  0  0  0  0999 V2000
   -0.2012   -1.4321    1.0734 C   0  0  0  0  0  0  0  0  0  0  0  0
   -0.3230   -0.8804   -0.2872 C   0  0  1  0  0  0  0  0  0  0  0  0
   -1.2105    0.3693   -0.2263 C   0  0  0  0  0  0  0  0  0  0  0  0
   -2.5828    0.0321    0.2938 C   0  0  0  0  0  0  0  0  0  0  0  0
   -3.3924    1.2474    0.3135 N   0  0  0  0  0  0  0  0  0  0  0  0
    0.8157   -0.6780   -1.0789 N   0  0  0  0  0  0  0  0  0  0  0  0
    1.8167    0.2347   -0.7445 C   0  0  0  0  0  0  0  0  0  0  0  0
    2.7149   -0.0359    0.3755 C   0  0  0  0  0  0  0  0  0  0  0  0
    3.6972    0.9410    0.6875 N   0  0  0  0  0  0  0  0  0  0  0  0
    2.6669   -1.0592    1.0601 O   0  0  0  0  0  0  0  0  0  0  0  0
    0.1073   -0.7004    1.8390 H   0  0  0  0  0  0  0  0  0  0  0  0
    0.3855   -2.3730    1.1497 H   0  0  0  0  0  0  0  0  0  0  0  0
   -1.2299   -1.7713    1.4393 H   0  0  0  0  0  0  0  0  0  0  0  0
   -0.9808   -1.6129   -0.8665 H   0  0  0  0  0  0  0  0  0  0  0  0
   -1.3446    0.7981   -1.2435 H   0  0  0  0  0  0  0  0  0  0  0  0
   -0.7785    1.1243    0.4578 H   0  0  0  0  0  0  0  0  0  0  0  0
   -3.0861   -0.7504   -0.2942 H   0  0  0  0  0  0  0  0  0  0  0  0
   -2.5582   -0.3168    1.3528 H   0  0  0  0  0  0  0  0  0  0  0  0
   -4.2777    1.1513   -0.2136 H   0  0  0  0  0  0  0  0  0  0  0  0
   -2.8356    2.0462   -0.0489 H   0  0  0  0  0  0  0  0  0  0  0  0
    0.5346   -0.5670   -2.0782 H   0  0  0  0  0  0  0  0  0  0  0  0
    1.4414    1.3103   -0.6982 H   0  0  0  0  0  0  0  0  0  0  0  0
    2.5171    0.3100   -1.6520 H   0  0  0  0  0  0  0  0  0  0  0  0
    4.5369    1.0928    0.0932 H   0  0  0  0  0  0  0  0  0  0  0  0
    3.5670    1.5200    1.5391 H   0  0  0  0  0  0  0  0  0  0  0  0
  1  2  1  0
  2  3  1  0
  3  4  1  0
  4  5  1  0
  2  6  1  0
  6  7  1  0
  7  8  1  0
  8  9  1  0
  8 10  2  0
  1 11  1  0
  1 12  1  0
  1 13  1  0
  2 14  1  6
  3 15  1  0
  3 16  1  0
  4 17  1  0
  4 18  1  0
  5 19  1  0
  5 20  1  0
  6 21  1  0
  7 22  1  0
  7 23  1  0
  9 24  1  0
  9 25  1  0
M  END
$$$$

     RDKit          3D

 25 24  0  0  0  0  0  0  0  0999 V2000
   -0.6375    1.6742   -0.1722 C   0  0  0  0  0  0  0  0  0  0  0  0
   -0.4718    0.4832    0.7473 C   0  0  1  0  0  0  0  0  0  0  0  0
   -1.7521   -0.2924    0.9153 C   0  0  0  0  0  0  0  0  0  0  0  0
   -2.2821   -0.8389   -0.3895 C   0  0  0  0  0  0  0  0  0  0  0  0
   -3.5082   -1.5536   -0.0643 N   0  0  0  0  0  0  0  0  0  0  0  0
    0.6436   -0.3440    0.4035 N   0  0  0  0  0  0  0  0  0  0  0  0
    1.8949    0.3717    0.5195 C   0  0  0  0  0  0  0  0  0  0  0  0
    3.0220   -0.5079    0.1611 C   0  0  0  0  0  0  0  0  0  0  0  0
    4.3472   -0.0221    0.1983 N   0  0  0  0  0  0  0  0  0  0  0  0
    2.7825   -1.7000   -0.1791 O   0  0  0  0  0  0  0  0  0  0  0  0
    0.0648    2.4742    0.1901 H   0  0  0  0  0  0  0  0  0  0  0  0
   -0.3492    1.4695   -1.2073 H   0  0  0  0  0  0  0  0  0  0  0  0
   -1.6449    2.0872   -0.0317 H   0  0  0  0  0  0  0  0  0  0  0  0
   -0.2544    0.9161    1.7692 H   0  0  0  0  0  0  0  0  0  0  0  0
   -2.5249    0.4039    1.3162 H   0  0  0  0  0  0  0  0  0  0  0  0
   -1.5698   -1.1555    1.5793 H   0  0  0  0  0  0  0  0  0  0  0  0
   -2.4381   -0.0552   -1.1567 H   0  0  0  0  0  0  0  0  0  0  0  0
   -1.5695   -1.6047   -0.7864 H   0  0  0  0  0  0  0  0  0  0  0  0
   -4.3264   -0.9482   -0.2000 H   0  0  0  0  0  0  0  0  0  0  0  0
   -3.5555   -2.4990   -0.4623 H   0  0  0  0  0  0  0  0  0  0  0  0
    0.5415   -0.6432   -0.5901 H   0  0  0  0  0  0  0  0  0  0  0  0
    2.0171    0.6596    1.5886 H   0  0  0  0  0  0  0  0  0  0  0  0
    1.8888    1.3089   -0.0749 H   0  0  0  0  0  0  0  0  0  0  0  0
    4.6636    0.7216   -0.4584 H   0  0  0  0  0  0  0  0  0  0  0  0
    5.0185   -0.4054    0.8877 H   0  0  0  0  0  0  0  0  0  0  0  0
  1  2  1  0
  2  3  1  0
  3  4  1  0
  4  5  1  0
  2  6  1  0
  6  7  1  0
  7  8  1  0
  8  9  1  0
  8 10  2  0
  1 11  1  0
  1 12  1  0
  1 13  1  0
  2 14  1  1
  3 15  1  0
  3 16  1  0
  4 17  1  0
  4 18  1  0
  5 19  1  0
  5 20  1  0
  6 21  1  0
  7 22  1  0
  7 23  1  0
  9 24  1  0
  9 25  1  0
M  END
$$$$

     RDKit          3D

 25 24  0  0  0  0  0  0  0  0999 V2000
   -0.6562   -1.9330    0.0369 C   0  0  0  0  0  0  0  0  0  0  0  0
   -0.2839   -0.6124   -0.5138 C   0  0  1  0  0  0  0  0  0  0  0  0
   -1.1860    0.4518    0.1216 C   0  0  0  0  0  0  0  0  0  0  0  0
   -2.6424    0.2077   -0.1644 C   0  0  0  0  0  0  0  0  0  0  0  0
   -3.3584    1.3015    0.5063 N   0  0  0  0  0  0  0  0  0  0  0  0
    1.0442   -0.1838   -0.3725 N   0  0  0  0  0  0  0  0  0  0  0  0
    1.6008    0.0290    0.8910 C   0  0  0  0  0  0  0  0  0  0  0  0
    3.0246    0.4790    0.6882 C   0  0  0  0  0  0  0  0  0  0  0  0
    3.5905    0.6237   -0.6084 N   0  0  0  0  0  0  0  0  0  0  0  0
    3.7433    0.7372    1.6764 O   0  0  0  0  0  0  0  0  0  0  0  0
    0.1269   -2.6940    0.0416 H   0  0  0  0  0  0  0  0  0  0  0  0
   -1.5072   -2.3603   -0.5672 H   0  0  0  0  0  0  0  0  0  0  0  0
   -1.0888   -1.8004    1.0601 H   0  0  0  0  0  0  0  0  0  0  0  0
   -0.5028   -0.6423   -1.6173 H   0  0  0  0  0  0  0  0  0  0  0  0
   -1.0339    0.3317    1.2285 H   0  0  0  0  0  0  0  0  0  0  0  0
   -0.8931    1.4492   -0.2137 H   0  0  0  0  0  0  0  0  0  0  0  0
   -2.9679   -0.7518    0.2974 H   0  0  0  0  0  0  0  0  0  0  0  0
   -2.8736    0.2435   -1.2413 H   0  0  0  0  0  0  0  0  0  0  0  0
   -3.0282    2.1961    0.0336 H   0  0  0  0  0  0  0  0  0  0  0  0
   -2.9790    1.3587    1.4866 H   0  0  0  0  0  0  0  0  0  0  0  0
    1.4827    0.2437   -1.1808 H   0  0  0  0  0  0  0  0  0  0  0  0
    1.6834   -0.8992    1.5142 H   0  0  0  0  0  0  0  0  0  0  0  0
    1.1280    0.8020    1.5192 H   0  0  0  0  0  0  0  0  0  0  0  0
    3.9763   -0.1715   -1.1411 H   0  0  0  0  0  0  0  0  0  0  0  0
    3.6004    1.5939   -1.0135 H   0  0  0  0  0  0  0  0  0  0  0  0
  1  2  1  0
  2  3  1  0
  3  4  1  0
  4  5  1  0
  2  6  1  0
  6  7  1  0
  7  8  1  0
  8  9  1  0
  8 10  2  0
  1 11  1  0
  1 12  1  0
  1 13  1  0
  2 14  1  6
  3 15  1  0
  3 16  1  0
  4 17  1  0
  4 18  1  0
  5 19  1  0
  5 20  1  0
  6 21  1  0
  7 22  1  0
  7 23  1  0
  9 24  1  0
  9 25  1  0
M  END
$$$$

     RDKit          3D

 25 24  0  0  0  0  0  0  0  0999 V2000
   -0.8360   -1.1685    0.5861 C   0  0  0  0  0  0  0  0  0  0  0  0
   -0.3512   -0.3091   -0.5412 C   0  0  1  0  0  0  0  0  0  0  0  0
   -1.1417    1.0066   -0.6371 C   0  0  0  0  0  0  0  0  0  0  0  0
   -2.5993    0.7628   -0.8726 C   0  0  0  0  0  0  0  0  0  0  0  0
   -3.1699   -0.0011    0.1943 N   0  0  0  0  0  0  0  0  0  0  0  0
    0.9999    0.0186   -0.4082 N   0  0  0  0  0  0  0  0  0  0  0  0
    1.9863   -0.9733   -0.4325 C   0  0  0  0  0  0  0  0  0  0  0  0
    3.3437   -0.3528   -0.2913 C   0  0  0  0  0  0  0  0  0  0  0  0
    3.5096    1.0509   -0.1586 N   0  0  0  0  0  0  0  0  0  0  0  0
    4.3618   -1.0879   -0.2905 O   0  0  0  0  0  0  0  0  0  0  0  0
   -1.6560   -1.8363    0.2193 H   0  0  0  0  0  0  0  0  0  0  0  0
   -0.0217   -1.7745    0.9710 H   0  0  0  0  0  0  0  0  0  0  0  0
   -1.2041   -0.5198    1.4129 H   0  0  0  0  0  0  0  0  0  0  0  0
   -0.4905   -0.8463   -1.5183 H   0  0  0  0  0  0  0  0  0  0  0  0
   -0.9315    1.6198    0.2375 H   0  0  0  0  0  0  0  0  0  0  0  0
   -0.7580    1.5396   -1.5381 H   0  0  0  0  0  0  0  0  0  0  0  0
   -3.0946    1.7369   -0.9606 H   0  0  0  0  0  0  0  0  0  0  0  0
   -2.7291    0.2040   -1.8205 H   0  0  0  0  0  0  0  0  0  0  0  0
   -3.9485   -0.5696   -0.1972 H   0  0  0  0  0  0  0  0  0  0  0  0
   -3.4770    0.6331    0.9408 H   0  0  0  0  0  0  0  0  0  0  0  0
    1.2374    0.9278    0.0180 H   0  0  0  0  0  0  0  0  0  0  0  0
    1.8671   -1.7693    0.3100 H   0  0  0  0  0  0  0  0  0  0  0  0
    1.9277   -1.4950   -1.4348 H   0  0  0  0  0  0  0  0  0  0  0  0
    4.0933    1.6011   -0.8571 H   0  0  0  0  0  0  0  0  0  0  0  0
    3.0822    1.6024    0.6073 H   0  0  0  0  0  0  0  0  0  0  0  0
  1  2  1  0
  2  3  1  0
  3  4  1  0
  4  5  1  0
  2  6  1  0
  6  7  1  0
  7  8  1  0
  8  9  1  0
  8 10  2  0
  1 11  1  0
  1 12  1  0
  1 13  1  0
  2 14  1  6
  3 15  1  0
  3 16  1  0
  4 17  1  0
  4 18  1  0
  5 19  1  0
  5 20  1  0
  6 21  1  0
  7 22  1  0
  7 23  1  0
  9 24  1  0
  9 25  1  0
M  END
$$$$

     RDKit          3D

 25 24  0  0  0  0  0  0  0  0999 V2000
    0.3542   -1.8138   -0.7210 C   0  0  0  0  0  0  0  0  0  0  0  0
    0.2883   -0.7990    0.3917 C   0  0  1  0  0  0  0  0  0  0  0  0
    1.5854   -0.0789    0.5231 C   0  0  0  0  0  0  0  0  0  0  0  0
    2.0434    0.6799   -0.6764 C   0  0  0  0  0  0  0  0  0  0  0  0
    3.3278    1.3022   -0.3236 N   0  0  0  0  0  0  0  0  0  0  0  0
   -0.8618   -0.0077    0.3160 N   0  0  0  0  0  0  0  0  0  0  0  0
   -2.1302   -0.6021    0.4476 C   0  0  0  0  0  0  0  0  0  0  0  0
   -3.2034    0.4194    0.3830 C   0  0  0  0  0  0  0  0  0  0  0  0
   -2.8434    1.7759    0.2117 N   0  0  0  0  0  0  0  0  0  0  0  0
   -4.3966    0.1049    0.4766 O   0  0  0  0  0  0  0  0  0  0  0  0
    1.1217   -2.5705   -0.3818 H   0  0  0  0  0  0  0  0  0  0  0  0
   -0.6203   -2.3039   -0.8555 H   0  0  0  0  0  0  0  0  0  0  0  0
    0.7462   -1.3349   -1.6546 H   0  0  0  0  0  0  0  0  0  0  0  0
    0.1969   -1.4231    1.3386 H   0  0  0  0  0  0  0  0  0  0  0  0
    2.3697   -0.8263    0.7851 H   0  0  0  0  0  0  0  0  0  0  0  0
    1.5342    0.6235    1.3759 H   0  0  0  0  0  0  0  0  0  0  0  0
    1.3659    1.5297   -0.9285 H   0  0  0  0  0  0  0  0  0  0  0  0
    2.2235    0.0678   -1.5619 H   0  0  0  0  0  0  0  0  0  0  0  0
    3.5951    1.1025    0.6622 H   0  0  0  0  0  0  0  0  0  0  0  0
    4.0719    1.0686   -1.0168 H   0  0  0  0  0  0  0  0  0  0  0  0
   -0.8021    0.9139   -0.1175 H   0  0  0  0  0  0  0  0  0  0  0  0
   -2.2644   -1.1305    1.4194 H   0  0  0  0  0  0  0  0  0  0  0  0
   -2.3011   -1.3309   -0.3795 H   0  0  0  0  0  0  0  0  0  0  0  0
   -3.1124    2.3395   -0.6442 H   0  0  0  0  0  0  0  0  0  0  0  0
   -2.2883    2.2937    0.9307 H   0  0  0  0  0  0  0  0  0  0  0  0
  1  2  1  0
  2  3  1  0
  3  4  1  0
  4  5  1  0
  2  6  1  0
  6  7  1  0
  7  8  1  0
  8  9  1  0
  8 10  2  0
  1 11  1  0
  1 12  1  0
  1 13  1  0
  2 14  1  1
  3 15  1  0
  3 16  1  0
  4 17  1  0
  4 18  1  0
  5 19  1  0
  5 20  1  0
  6 21  1  0
  7 22  1  0
  7 23  1  0
  9 24  1  0
  9 25  1  0
M  END
$$$$

     RDKit          3D

 25 24  0  0  0  0  0  0  0  0999 V2000
   -0.8059   -0.4343   -1.4936 C   0  0  0  0  0  0  0  0  0  0  0  0
   -0.2067    0.4579   -0.4743 C   0  0  1  0  0  0  0  0  0  0  0  0
   -1.0003    0.4040    0.8114 C   0  0  0  0  0  0  0  0  0  0  0  0
   -2.4256    0.8326    0.6505 C   0  0  0  0  0  0  0  0  0  0  0  0
   -3.1581    0.0179   -0.2771 N   0  0  0  0  0  0  0  0  0  0  0  0
    1.1485    0.2417   -0.1549 N   0  0  0  0  0  0  0  0  0  0  0  0
    1.5411   -0.9835    0.4135 C   0  0  0  0  0  0  0  0  0  0  0  0
    3.0205   -0.9213    0.6579 C   0  0  0  0  0  0  0  0  0  0  0  0
    3.7870    0.2478    0.3258 N   0  0  0  0  0  0  0  0  0  0  0  0
    3.6677   -1.8672    1.1580 O   0  0  0  0  0  0  0  0  0  0  0  0
   -0.0952   -0.7758   -2.2748 H   0  0  0  0  0  0  0  0  0  0  0  0
   -1.5917    0.1217   -2.0466 H   0  0  0  0  0  0  0  0  0  0  0  0
   -1.3268   -1.2984   -1.0100 H   0  0  0  0  0  0  0  0  0  0  0  0
   -0.3035    1.5168   -0.8561 H   0  0  0  0  0  0  0  0  0  0  0  0
   -1.0043   -0.6271    1.2355 H   0  0  0  0  0  0  0  0  0  0  0  0
   -0.5387    1.0389    1.6101 H   0  0  0  0  0  0  0  0  0  0  0  0
   -2.9390    0.8903    1.6232 H   0  0  0  0  0  0  0  0  0  0  0  0
   -2.4207    1.8672    0.2255 H   0  0  0  0  0  0  0  0  0  0  0  0
   -3.8380    0.5791   -0.8437 H   0  0  0  0  0  0  0  0  0  0  0  0
   -3.6933   -0.7163    0.2400 H   0  0  0  0  0  0  0  0  0  0  0  0
    1.7395    1.0459    0.0543 H   0  0  0  0  0  0  0  0  0  0  0  0
    1.2655   -1.8895   -0.1536 H   0  0  0  0  0  0  0  0  0  0  0  0
    1.0675   -1.0857    1.4098 H   0  0  0  0  0  0  0  0  0  0  0  0
    3.6759    0.6350   -0.6188 H   0  0  0  0  0  0  0  0  0  0  0  0
    4.4347    0.7021    0.9981 H   0  0  0  0  0  0  0  0  0  0  0  0
  1  2  1  0
  2  3  1  0
  3  4  1  0
  4  5  1  0
  2  6  1  0
  6  7  1  0
  7  8  1  0
  8  9  1  0
  8 10  2  0
  1 11  1  0
  1 12  1  0
  1 13  1  0
  2 14  1  6
  3 15  1  0
  3 16  1  0
  4 17  1  0
  4 18  1  0
  5 19  1  0
  5 20  1  0
  6 21  1  0
  7 22  1  0
  7 23  1  0
  9 24  1  0
  9 25  1  0
M  END
$$$$

     RDKit          3D

 25 24  0  0  0  0  0  0  0  0999 V2000
    0.8006   -1.4828    1.3974 C   0  0  0  0  0  0  0  0  0  0  0  0
    0.3254   -0.1455    0.9601 C   0  0  1  0  0  0  0  0  0  0  0  0
    1.1602    0.4641   -0.1716 C   0  0  0  0  0  0  0  0  0  0  0  0
    2.5906    0.6492    0.2175 C   0  0  0  0  0  0  0  0  0  0  0  0
    3.2739    1.2330   -0.9277 N   0  0  0  0  0  0  0  0  0  0  0  0
   -1.0601   -0.0054    0.7219 N   0  0  0  0  0  0  0  0  0  0  0  0
   -1.6583   -0.7646   -0.2975 C   0  0  0  0  0  0  0  0  0  0  0  0
   -3.1131   -0.4237   -0.3499 C   0  0  0  0  0  0  0  0  0  0  0  0
   -3.6760    0.5306    0.5417 N   0  0  0  0  0  0  0  0  0  0  0  0
   -3.9001   -0.9583   -1.1749 O   0  0  0  0  0  0  0  0  0  0  0  0
    0.1541   -2.3251    1.0986 H   0  0  0  0  0  0  0  0  0  0  0  0
    0.9100   -1.5688    2.5122 H   0  0  0  0  0  0  0  0  0  0  0  0
    1.8199   -1.7478    1.0000 H   0  0  0  0  0  0  0  0  0  0  0  0
    0.5498    0.5535    1.8313 H   0  0  0  0  0  0  0  0  0  0  0  0
    0.7224    1.4835   -0.3241 H   0  0  0  0  0  0  0  0  0  0  0  0
    1.0416   -0.0872   -1.1150 H   0  0  0  0  0  0  0  0  0  0  0  0
    3.1222   -0.2737    0.4641 H   0  0  0  0  0  0  0  0  0  0  0  0
    2.6417    1.3404    1.0873 H   0  0  0  0  0  0  0  0  0  0  0  0
    3.4083    2.2549   -0.8226 H   0  0  0  0  0  0  0  0  0  0  0  0
    2.7810    0.9595   -1.7922 H   0  0  0  0  0  0  0  0  0  0  0  0
   -1.2661    1.0081    0.5658 H   0  0  0  0  0  0  0  0  0  0  0  0
   -1.6116   -1.8618   -0.1776 H   0  0  0  0  0  0  0  0  0  0  0  0
   -1.2720   -0.5650   -1.3292 H   0  0  0  0  0  0  0  0  0  0  0  0
   -3.3305    0.5613    1.5297 H   0  0  0  0  0  0  0  0  0  0  0  0
   -4.4136    1.1715    0.1922 H   0  0  0  0  0  0  0  0  0  0  0  0
  1  2  1  0
  2  3  1  0
  3  4  1  0
  4  5  1  0
  2  6  1  0
  6  7  1  0
  7  8  1  0
  8  9  1  0
  8 10  2  0
  1 11  1  0
  1 12  1  0
  1 13  1  0
  2 14  1  1
  3 15  1  0
  3 16  1  0
  4 17  1  0
  4 18  1  0
  5 19  1  0
  5 20  1  0
  6 21  1  0
  7 22  1  0
  7 23  1  0
  9 24  1  0
  9 25  1  0
M  END
$$$$

     RDKit          3D

 25 24  0  0  0  0  0  0  0  0999 V2000
    0.7744   -1.7986   -0.3402 C   0  0  0  0  0  0  0  0  0  0  0  0
    0.2941   -0.7603    0.6308 C   0  0  1  0  0  0  0  0  0  0  0  0
    1.3707    0.1770    1.0681 C   0  0  0  0  0  0  0  0  0  0  0  0
    2.0065    0.9570   -0.0355 C   0  0  0  0  0  0  0  0  0  0  0  0
    3.0218    1.8221    0.4563 N   0  0  0  0  0  0  0  0  0  0  0  0
   -0.8420   -0.1087    0.1275 N   0  0  0  0  0  0  0  0  0  0  0  0
   -2.0036   -0.8802   -0.0919 C   0  0  0  0  0  0  0  0  0  0  0  0
   -3.1226   -0.0759   -0.5961 C   0  0  0  0  0  0  0  0  0  0  0  0
   -2.9714    1.3151   -0.8081 N   0  0  0  0  0  0  0  0  0  0  0  0
   -4.2450   -0.6300   -0.8478 O   0  0  0  0  0  0  0  0  0  0  0  0
    0.0019   -2.5802   -0.4449 H   0  0  0  0  0  0  0  0  0  0  0  0
    1.7118   -2.2901   -0.0030 H   0  0  0  0  0  0  0  0  0  0  0  0
    0.8821   -1.3265   -1.3517 H   0  0  0  0  0  0  0  0  0  0  0  0
   -0.0299   -1.3287    1.5545 H   0  0  0  0  0  0  0  0  0  0  0  0
    0.9371    0.9130    1.7868 H   0  0  0  0  0  0  0  0  0  0  0  0
    2.1795   -0.3584    1.6415 H   0  0  0  0  0  0  0  0  0  0  0  0
    2.4802    0.3015   -0.8137 H   0  0  0  0  0  0  0  0  0  0  0  0
    1.2074    1.5488   -0.5496 H   0  0  0  0  0  0  0  0  0  0  0  0
    3.8623    1.9457   -0.1153 H   0  0  0  0  0  0  0  0  0  0  0  0
    3.1295    1.8679    1.4755 H   0  0  0  0  0  0  0  0  0  0  0  0
   -0.7001    0.7111   -0.4748 H   0  0  0  0  0  0  0  0  0  0  0  0
   -2.3191   -1.3779    0.8581 H   0  0  0  0  0  0  0  0  0  0  0  0
   -1.7914   -1.7205   -0.8123 H   0  0  0  0  0  0  0  0  0  0  0  0
   -2.6085    1.6734   -1.7112 H   0  0  0  0  0  0  0  0  0  0  0  0
   -3.2258    2.0034   -0.0475 H   0  0  0  0  0  0  0  0  0  0  0  0
  1  2  1  0
  2  3  1  0
  3  4  1  0
  4  5  1  0
  2  6  1  0
  6  7  1  0
  7  8  1  0
  8  9  1  0
  8 10  2  0
  1 11  1  0
  1 12  1  0
  1 13  1  0
  2 14  1  1
  3 15  1  0
  3 16  1  0
  4 17  1  0
  4 18  1  0
  5 19  1  0
  5 20  1  0
  6 21  1  0
  7 22  1  0
  7 23  1  0
  9 24  1  0
  9 25  1  0
M  END
$$$$
