
     RDKit          3D

 28 29  0  0  0  0  0  0  0  0999 V2000
    2.3452   -1.1699    0.7597 C   0  0  0  0  0  0  0  0  0  0  0  0
    2.2700    0.0552    0.0260 N   0  0  0  0  0  0  0  0  0  0  0  0
    3.2567    0.9161   -0.1523 N   0  0  0  0  0  0  0  0  0  0  0  0
    2.8125    1.9374   -0.8317 N   0  0  0  0  0  0  0  0  0  0  0  0
    1.5232    1.7309   -1.0888 C   0  0  0  0  0  0  0  0  0  0  0  0
    1.1433    0.5229   -0.5452 C   0  0  0  0  0  0  0  0  0  0  0  0
   -0.2092   -0.0027   -0.6810 C   0  0  1  0  0  0  0  0  0  0  0  0
   -0.6333    0.3616   -1.9881 O   0  0  0  0  0  0  0  0  0  0  0  0
   -0.4631   -1.4432   -0.5859 C   0  0  0  0  0  0  0  0  0  0  0  0
   -1.9968   -1.5696   -0.4727 C   0  0  0  0  0  0  0  0  0  0  0  0
   -2.2807   -1.3169    0.8698 O   0  0  0  0  0  0  0  0  0  0  0  0
   -1.7558   -0.1505    1.3218 C   0  0  0  0  0  0  0  0  0  0  0  0
   -1.1683    0.7300    0.2742 C   0  0  1  0  0  0  0  0  0  0  0  0
   -0.3660    1.7468    0.9918 N   0  0  0  0  0  0  0  0  0  0  0  0
    3.3770   -1.3052    1.1962 H   0  0  0  0  0  0  0  0  0  0  0  0
    2.2259   -2.0719    0.1183 H   0  0  0  0  0  0  0  0  0  0  0  0
    1.6945   -1.1988    1.6699 H   0  0  0  0  0  0  0  0  0  0  0  0
    0.9285    2.4237   -1.6712 H   0  0  0  0  0  0  0  0  0  0  0  0
   -0.9190    1.2944   -1.9385 H   0  0  0  0  0  0  0  0  0  0  0  0
   -0.1129   -1.9737    0.3029 H   0  0  0  0  0  0  0  0  0  0  0  0
   -0.2125   -2.0102   -1.5121 H   0  0  0  0  0  0  0  0  0  0  0  0
   -2.5086   -0.8920   -1.1602 H   0  0  0  0  0  0  0  0  0  0  0  0
   -2.2003   -2.6424   -0.6418 H   0  0  0  0  0  0  0  0  0  0  0  0
   -0.9650   -0.2807    2.1061 H   0  0  0  0  0  0  0  0  0  0  0  0
   -2.5561    0.4146    1.8190 H   0  0  0  0  0  0  0  0  0  0  0  0
   -1.9615    1.2822   -0.2495 H   0  0  0  0  0  0  0  0  0  0  0  0
   -0.9971    2.0836    1.7422 H   0  0  0  0  0  0  0  0  0  0  0  0
   -0.2707    2.5282    0.3212 H   0  0  0  0  0  0  0  0  0  0  0  0
  1  2  1  0
  2  3  1  0
  3  4  2  0
  4  5  1  0
  5  6  2  0
  6  7  1  0
  7  8  1  6
  7  9  1  0
  9 10  1  0
 10 11  1  0
 11 12  1  0
 12 13  1  0
 13 14  1  0
  6  2  1  0
 13  7  1  0
  1 15  1  0
  1 16  1  0
  1 17  1  0
  5 18  1  0
  8 19  1  0
  9 20  1  0
  9 21  1  0
 10 22  1  0
 10 23  1  0
 12 24  1  0
 12 25  1  0
 13 26  1  6
 14 27  1  0
 14 28  1  0
M  END
$$$$

     RDKit          3D

 28 29  0  0  0  0  0  0  0  0999 V2000
    3.0200   -0.2436   -0.9966 C   0  0  0  0  0  0  0  0  0  0  0  0
    2.4344    0.3765    0.1672 N   0  0  0  0  0  0  0  0  0  0  0  0
    3.1197    1.0595    1.0784 N   0  0  0  0  0  0  0  0  0  0  0  0
    2.3394    1.5068    2.0215 N   0  0  0  0  0  0  0  0  0  0  0  0
    1.0837    1.1107    1.7354 C   0  0  0  0  0  0  0  0  0  0  0  0
    1.1663    0.4034    0.5692 C   0  0  0  0  0  0  0  0  0  0  0  0
    0.0216   -0.2237   -0.1122 C   0  0  1  0  0  0  0  0  0  0  0  0
    0.3622   -0.9032   -1.2657 O   0  0  0  0  0  0  0  0  0  0  0  0
   -0.6334   -1.2173    0.8285 C   0  0  0  0  0  0  0  0  0  0  0  0
   -1.9541   -1.6894    0.2986 C   0  0  0  0  0  0  0  0  0  0  0  0
   -2.7933   -0.6014    0.0822 O   0  0  0  0  0  0  0  0  0  0  0  0
   -2.2833    0.1684   -0.9548 C   0  0  0  0  0  0  0  0  0  0  0  0
   -0.9921    0.8279   -0.5120 C   0  0  1  0  0  0  0  0  0  0  0  0
   -1.2535    1.7851    0.5223 N   0  0  0  0  0  0  0  0  0  0  0  0
    2.4515   -0.1349   -1.9214 H   0  0  0  0  0  0  0  0  0  0  0  0
    3.3012   -1.2988   -0.7551 H   0  0  0  0  0  0  0  0  0  0  0  0
    4.0137    0.2498   -1.2129 H   0  0  0  0  0  0  0  0  0  0  0  0
    0.2557    1.3522    2.3627 H   0  0  0  0  0  0  0  0  0  0  0  0
   -0.0515   -1.7733   -1.3827 H   0  0  0  0  0  0  0  0  0  0  0  0
   -0.8040   -0.7521    1.8145 H   0  0  0  0  0  0  0  0  0  0  0  0
    0.0586   -2.0926    0.8838 H   0  0  0  0  0  0  0  0  0  0  0  0
   -1.8877   -2.2569   -0.6394 H   0  0  0  0  0  0  0  0  0  0  0  0
   -2.4193   -2.3553    1.0484 H   0  0  0  0  0  0  0  0  0  0  0  0
   -3.0214    0.9797   -1.1556 H   0  0  0  0  0  0  0  0  0  0  0  0
   -2.0994   -0.4123   -1.8642 H   0  0  0  0  0  0  0  0  0  0  0  0
   -0.5972    1.3742   -1.4166 H   0  0  0  0  0  0  0  0  0  0  0  0
   -0.6038    2.6085    0.4345 H   0  0  0  0  0  0  0  0  0  0  0  0
   -2.2339    2.1522    0.3418 H   0  0  0  0  0  0  0  0  0  0  0  0
  1  2  1  0
  2  3  1  0
  3  4  2  0
  4  5  1  0
  5  6  2  0
  6  7  1  0
  7  8  1  6
  7  9  1  0
  9 10  1  0
 10 11  1  0
 11 12  1  0
 12 13  1  0
 13 14  1  0
  6  2  1  0
 13  7  1  0
  1 15  1  0
  1 16  1  0
  1 17  1  0
  5 18  1  0
  8 19  1  0
  9 20  1  0
  9 21  1  0
 10 22  1  0
 10 23  1  0
 12 24  1  0
 12 25  1  0
 13 26  1  6
 14 27  1  0
 14 28  1  0
M  END
$$$$

     RDKit          3D

 28 29  0  0  0  0  0  0  0  0999 V2000
    2.9796   -0.3429   -1.0922 C   0  0  0  0  0  0  0  0  0  0  0  0
    2.5389    0.1528    0.1841 N   0  0  0  0  0  0  0  0  0  0  0  0
    3.3268    0.5835    1.1333 N   0  0  0  0  0  0  0  0  0  0  0  0
    2.6415    0.9508    2.1918 N   0  0  0  0  0  0  0  0  0  0  0  0
    1.3266    0.7291    1.8845 C   0  0  0  0  0  0  0  0  0  0  0  0
    1.2457    0.2232    0.6098 C   0  0  0  0  0  0  0  0  0  0  0  0
    0.0289   -0.2089   -0.0753 C   0  0  1  0  0  0  0  0  0  0  0  0
    0.2950   -0.9905   -1.1930 O   0  0  0  0  0  0  0  0  0  0  0  0
   -0.7475   -1.1322    0.8772 C   0  0  0  0  0  0  0  0  0  0  0  0
   -2.0654   -1.4379    0.2549 C   0  0  0  0  0  0  0  0  0  0  0  0
   -2.1575   -1.0661   -1.0674 O   0  0  0  0  0  0  0  0  0  0  0  0
   -2.0247    0.2925   -1.2650 C   0  0  0  0  0  0  0  0  0  0  0  0
   -0.9186    0.9042   -0.4300 C   0  0  1  0  0  0  0  0  0  0  0  0
   -1.5210    1.4781    0.7519 N   0  0  0  0  0  0  0  0  0  0  0  0
    3.1694   -1.4253   -1.0967 H   0  0  0  0  0  0  0  0  0  0  0  0
    2.3252    0.0063   -1.9237 H   0  0  0  0  0  0  0  0  0  0  0  0
    3.9736    0.1435   -1.3191 H   0  0  0  0  0  0  0  0  0  0  0  0
    0.4677    0.9282    2.5288 H   0  0  0  0  0  0  0  0  0  0  0  0
   -0.0119   -0.5191   -2.0207 H   0  0  0  0  0  0  0  0  0  0  0  0
   -0.8030   -0.6348    1.8450 H   0  0  0  0  0  0  0  0  0  0  0  0
   -0.0976   -2.0440    0.9932 H   0  0  0  0  0  0  0  0  0  0  0  0
   -2.2072   -2.5617    0.2779 H   0  0  0  0  0  0  0  0  0  0  0  0
   -2.9022   -0.9993    0.8681 H   0  0  0  0  0  0  0  0  0  0  0  0
   -1.8010    0.4459   -2.3461 H   0  0  0  0  0  0  0  0  0  0  0  0
   -2.9959    0.7863   -1.0847 H   0  0  0  0  0  0  0  0  0  0  0  0
   -0.4234    1.6691   -1.0362 H   0  0  0  0  0  0  0  0  0  0  0  0
   -2.5383    1.6696    0.5588 H   0  0  0  0  0  0  0  0  0  0  0  0
   -1.1038    2.3997    0.9907 H   0  0  0  0  0  0  0  0  0  0  0  0
  1  2  1  0
  2  3  1  0
  3  4  2  0
  4  5  1  0
  5  6  2  0
  6  7  1  0
  7  8  1  6
  7  9  1  0
  9 10  1  0
 10 11  1  0
 11 12  1  0
 12 13  1  0
 13 14  1  0
  6  2  1  0
 13  7  1  0
  1 15  1  0
  1 16  1  0
  1 17  1  0
  5 18  1  0
  8 19  1  0
  9 20  1  0
  9 21  1  0
 10 22  1  0
 10 23  1  0
 12 24  1  0
 12 25  1  0
 13 26  1  6
 14 27  1  0
 14 28  1  0
M  END
$$$$

     RDKit          3D

 28 29  0  0  0  0  0  0  0  0999 V2000
    3.0339    0.4281   -0.0306 C   0  0  0  0  0  0  0  0  0  0  0  0
    2.0863   -0.4687    0.5982 N   0  0  0  0  0  0  0  0  0  0  0  0
    2.4792   -1.4963    1.3283 N   0  0  0  0  0  0  0  0  0  0  0  0
    1.4509   -2.1514    1.8043 N   0  0  0  0  0  0  0  0  0  0  0  0
    0.3468   -1.5430    1.3769 C   0  0  0  0  0  0  0  0  0  0  0  0
    0.7356   -0.4617    0.6004 C   0  0  0  0  0  0  0  0  0  0  0  0
   -0.0674    0.5374   -0.1164 C   0  0  1  0  0  0  0  0  0  0  0  0
    0.3834    1.8371    0.2303 O   0  0  0  0  0  0  0  0  0  0  0  0
    0.1232    0.3612   -1.6331 C   0  0  0  0  0  0  0  0  0  0  0  0
   -0.8089   -0.7286   -2.1055 C   0  0  0  0  0  0  0  0  0  0  0  0
   -1.3419   -1.4786   -1.0663 O   0  0  0  0  0  0  0  0  0  0  0  0
   -2.2504   -0.6991   -0.3409 C   0  0  0  0  0  0  0  0  0  0  0  0
   -1.5257    0.5229    0.1267 C   0  0  1  0  0  0  0  0  0  0  0  0
   -1.9095    0.9242    1.4779 N   0  0  0  0  0  0  0  0  0  0  0  0
    2.5810    1.3876   -0.3617 H   0  0  0  0  0  0  0  0  0  0  0  0
    3.8223    0.7355    0.7180 H   0  0  0  0  0  0  0  0  0  0  0  0
    3.5236   -0.0089   -0.9063 H   0  0  0  0  0  0  0  0  0  0  0  0
   -0.6968   -1.7762    1.5558 H   0  0  0  0  0  0  0  0  0  0  0  0
    0.6788    1.7693    1.1771 H   0  0  0  0  0  0  0  0  0  0  0  0
    1.1788    0.0850   -1.7771 H   0  0  0  0  0  0  0  0  0  0  0  0
   -0.1214    1.3486   -2.1219 H   0  0  0  0  0  0  0  0  0  0  0  0
   -0.2681   -1.4809   -2.7578 H   0  0  0  0  0  0  0  0  0  0  0  0
   -1.6732   -0.2963   -2.6533 H   0  0  0  0  0  0  0  0  0  0  0  0
   -3.0660   -0.4757   -1.0890 H   0  0  0  0  0  0  0  0  0  0  0  0
   -2.7304   -1.2833    0.4445 H   0  0  0  0  0  0  0  0  0  0  0  0
   -1.9398    1.3624   -0.5164 H   0  0  0  0  0  0  0  0  0  0  0  0
   -1.2153    1.5479    1.9046 H   0  0  0  0  0  0  0  0  0  0  0  0
   -2.8088    1.5014    1.4566 H   0  0  0  0  0  0  0  0  0  0  0  0
  1  2  1  0
  2  3  1  0
  3  4  2  0
  4  5  1  0
  5  6  2  0
  6  7  1  0
  7  8  1  1
  7  9  1  0
  9 10  1  0
 10 11  1  0
 11 12  1  0
 12 13  1  0
 13 14  1  0
  6  2  1  0
 13  7  1  0
  1 15  1  0
  1 16  1  0
  1 17  1  0
  5 18  1  0
  8 19  1  0
  9 20  1  0
  9 21  1  0
 10 22  1  0
 10 23  1  0
 12 24  1  0
 12 25  1  0
 13 26  1  6
 14 27  1  0
 14 28  1  0
M  END
$$$$

     RDKit          3D

 28 29  0  0  0  0  0  0  0  0999 V2000
    2.0137   -0.0148    1.3794 C   0  0  0  0  0  0  0  0  0  0  0  0
    2.1020   -0.1180   -0.0781 N   0  0  0  0  0  0  0  0  0  0  0  0
    3.2091   -0.0148   -0.8041 N   0  0  0  0  0  0  0  0  0  0  0  0
    2.9715   -0.1502   -2.0726 N   0  0  0  0  0  0  0  0  0  0  0  0
    1.6627   -0.3471   -2.2228 C   0  0  0  0  0  0  0  0  0  0  0  0
    1.0967   -0.3259   -0.9378 C   0  0  0  0  0  0  0  0  0  0  0  0
   -0.3696   -0.4763   -0.6326 C   0  0  1  0  0  0  0  0  0  0  0  0
   -0.9430   -0.9650   -1.8518 O   0  0  0  0  0  0  0  0  0  0  0  0
   -0.6659   -1.5148    0.3612 C   0  0  0  0  0  0  0  0  0  0  0  0
   -1.5926   -1.1030    1.4741 C   0  0  0  0  0  0  0  0  0  0  0  0
   -1.4598    0.2236    1.8049 O   0  0  0  0  0  0  0  0  0  0  0  0
   -1.8930    0.9679    0.7504 C   0  0  0  0  0  0  0  0  0  0  0  0
   -1.0045    0.8581   -0.4356 C   0  0  1  0  0  0  0  0  0  0  0  0
   -0.0022    1.9170   -0.3645 N   0  0  0  0  0  0  0  0  0  0  0  0
    2.1701   -0.9936    1.8748 H   0  0  0  0  0  0  0  0  0  0  0  0
    2.9425    0.5723    1.6685 H   0  0  0  0  0  0  0  0  0  0  0  0
    1.1884    0.5771    1.7442 H   0  0  0  0  0  0  0  0  0  0  0  0
    1.0936   -0.5035   -3.1421 H   0  0  0  0  0  0  0  0  0  0  0  0
   -0.8044   -0.1996   -2.4878 H   0  0  0  0  0  0  0  0  0  0  0  0
    0.2517   -1.9092    0.8349 H   0  0  0  0  0  0  0  0  0  0  0  0
   -1.1570   -2.4484   -0.0666 H   0  0  0  0  0  0  0  0  0  0  0  0
   -2.6286   -1.2492    1.1282 H   0  0  0  0  0  0  0  0  0  0  0  0
   -1.4414   -1.7616    2.3630 H   0  0  0  0  0  0  0  0  0  0  0  0
   -1.9700    2.0654    1.0174 H   0  0  0  0  0  0  0  0  0  0  0  0
   -2.9203    0.6675    0.4428 H   0  0  0  0  0  0  0  0  0  0  0  0
   -1.6380    1.1698   -1.3334 H   0  0  0  0  0  0  0  0  0  0  0  0
   -0.2019    2.7201   -1.0114 H   0  0  0  0  0  0  0  0  0  0  0  0
   -0.0098    2.3560    0.5975 H   0  0  0  0  0  0  0  0  0  0  0  0
  1  2  1  0
  2  3  1  0
  3  4  2  0
  4  5  1  0
  5  6  2  0
  6  7  1  0
  7  8  1  6
  7  9  1  0
  9 10  1  0
 10 11  1  0
 11 12  1  0
 12 13  1  0
 13 14  1  0
  6  2  1  0
 13  7  1  0
  1 15  1  0
  1 16  1  0
  1 17  1  0
  5 18  1  0
  8 19  1  0
  9 20  1  0
  9 21  1  0
 10 22  1  0
 10 23  1  0
 12 24  1  0
 12 25  1  0
 13 26  1  6
 14 27  1  0
 14 28  1  0
M  END
$$$$

     RDKit          3D

 28 29  0  0  0  0  0  0  0  0999 V2000
    2.4966    1.1476    0.1598 C   0  0  0  0  0  0  0  0  0  0  0  0
    2.3432   -0.2448   -0.2173 N   0  0  0  0  0  0  0  0  0  0  0  0
    3.2585   -1.0848   -0.6604 N   0  0  0  0  0  0  0  0  0  0  0  0
    2.7464   -2.2748   -0.9029 N   0  0  0  0  0  0  0  0  0  0  0  0
    1.4547   -2.2055   -0.6072 C   0  0  0  0  0  0  0  0  0  0  0  0
    1.1784   -0.9052   -0.1643 C   0  0  0  0  0  0  0  0  0  0  0  0
   -0.1611   -0.4932    0.2413 C   0  0  1  0  0  0  0  0  0  0  0  0
   -0.7725   -1.6034    0.8704 O   0  0  0  0  0  0  0  0  0  0  0  0
   -0.2181    0.6090    1.2463 C   0  0  0  0  0  0  0  0  0  0  0  0
   -1.6833    0.6392    1.7148 C   0  0  0  0  0  0  0  0  0  0  0  0
   -2.4342    1.0819    0.6609 O   0  0  0  0  0  0  0  0  0  0  0  0
   -2.4317    0.2435   -0.4380 C   0  0  0  0  0  0  0  0  0  0  0  0
   -1.0528   -0.1238   -0.9106 C   0  0  1  0  0  0  0  0  0  0  0  0
   -0.4921    0.9777   -1.6153 N   0  0  0  0  0  0  0  0  0  0  0  0
    1.9277    1.8405   -0.5197 H   0  0  0  0  0  0  0  0  0  0  0  0
    3.5776    1.4126   -0.0601 H   0  0  0  0  0  0  0  0  0  0  0  0
    2.3628    1.3551    1.2183 H   0  0  0  0  0  0  0  0  0  0  0  0
    0.7597   -3.0379   -0.7047 H   0  0  0  0  0  0  0  0  0  0  0  0
   -1.5884   -1.8875    0.4345 H   0  0  0  0  0  0  0  0  0  0  0  0
   -0.0505    1.6093    0.8022 H   0  0  0  0  0  0  0  0  0  0  0  0
    0.3826    0.4095    2.1542 H   0  0  0  0  0  0  0  0  0  0  0  0
   -1.7718    1.3801    2.5331 H   0  0  0  0  0  0  0  0  0  0  0  0
   -1.9454   -0.3722    2.0839 H   0  0  0  0  0  0  0  0  0  0  0  0
   -2.9057    0.8216   -1.2724 H   0  0  0  0  0  0  0  0  0  0  0  0
   -3.0757   -0.6512   -0.3010 H   0  0  0  0  0  0  0  0  0  0  0  0
   -1.1386   -1.0400   -1.5512 H   0  0  0  0  0  0  0  0  0  0  0  0
    0.3779    0.7703   -2.1400 H   0  0  0  0  0  0  0  0  0  0  0  0
   -1.1443    1.6261   -2.0547 H   0  0  0  0  0  0  0  0  0  0  0  0
  1  2  1  0
  2  3  1  0
  3  4  2  0
  4  5  1  0
  5  6  2  0
  6  7  1  0
  7  8  1  1
  7  9  1  0
  9 10  1  0
 10 11  1  0
 11 12  1  0
 12 13  1  0
 13 14  1  0
  6  2  1  0
 13  7  1  0
  1 15  1  0
  1 16  1  0
  1 17  1  0
  5 18  1  0
  8 19  1  0
  9 20  1  0
  9 21  1  0
 10 22  1  0
 10 23  1  0
 12 24  1  0
 12 25  1  0
 13 26  1  6
 14 27  1  0
 14 28  1  0
M  END
$$$$

     RDKit          3D

 28 29  0  0  0  0  0  0  0  0999 V2000
    2.9288    0.9819    0.3413 C   0  0  0  0  0  0  0  0  0  0  0  0
    2.3785   -0.3481    0.0955 N   0  0  0  0  0  0  0  0  0  0  0  0
    3.0914   -1.4771    0.0253 N   0  0  0  0  0  0  0  0  0  0  0  0
    2.3083   -2.5023   -0.2058 N   0  0  0  0  0  0  0  0  0  0  0  0
    1.0535   -2.0272   -0.2880 C   0  0  0  0  0  0  0  0  0  0  0  0
    1.0837   -0.6567   -0.0980 C   0  0  0  0  0  0  0  0  0  0  0  0
   -0.0631    0.2484   -0.1089 C   0  0  1  0  0  0  0  0  0  0  0  0
    0.3498    1.5679    0.0721 O   0  0  0  0  0  0  0  0  0  0  0  0
   -0.8188    0.2292   -1.4425 C   0  0  0  0  0  0  0  0  0  0  0  0
   -1.8923    1.3112   -1.2671 C   0  0  0  0  0  0  0  0  0  0  0  0
   -2.8617    0.9036   -0.3672 O   0  0  0  0  0  0  0  0  0  0  0  0
   -2.4891   -0.1567    0.4156 C   0  0  0  0  0  0  0  0  0  0  0  0
   -1.0858   -0.0621    0.9578 C   0  0  1  0  0  0  0  0  0  0  0  0
   -0.8041   -1.3661    1.5793 N   0  0  0  0  0  0  0  0  0  0  0  0
    3.0073    1.5723   -0.5985 H   0  0  0  0  0  0  0  0  0  0  0  0
    2.4172    1.5094    1.1570 H   0  0  0  0  0  0  0  0  0  0  0  0
    3.9934    0.8545    0.6943 H   0  0  0  0  0  0  0  0  0  0  0  0
    0.2012   -2.6633   -0.4740 H   0  0  0  0  0  0  0  0  0  0  0  0
    0.6426    1.8772   -0.8419 H   0  0  0  0  0  0  0  0  0  0  0  0
   -1.3062   -0.7315   -1.6259 H   0  0  0  0  0  0  0  0  0  0  0  0
   -0.1739    0.5870   -2.2666 H   0  0  0  0  0  0  0  0  0  0  0  0
   -2.2837    1.6603   -2.2225 H   0  0  0  0  0  0  0  0  0  0  0  0
   -1.3714    2.1807   -0.7970 H   0  0  0  0  0  0  0  0  0  0  0  0
   -2.6522   -1.1193   -0.1271 H   0  0  0  0  0  0  0  0  0  0  0  0
   -3.1660   -0.1666    1.3188 H   0  0  0  0  0  0  0  0  0  0  0  0
   -1.0552    0.6956    1.7707 H   0  0  0  0  0  0  0  0  0  0  0  0
   -1.5527   -1.5095    2.2898 H   0  0  0  0  0  0  0  0  0  0  0  0
    0.1209   -1.3926    2.0137 H   0  0  0  0  0  0  0  0  0  0  0  0
  1  2  1  0
  2  3  1  0
  3  4  2  0
  4  5  1  0
  5  6  2  0
  6  7  1  0
  7  8  1  1
  7  9  1  0
  9 10  1  0
 10 11  1  0
 11 12  1  0
 12 13  1  0
 13 14  1  0
  6  2  1  0
 13  7  1  0
  1 15  1  0
  1 16  1  0
  1 17  1  0
  5 18  1  0
  8 19  1  0
  9 20  1  0
  9 21  1  0
 10 22  1  0
 10 23  1  0
 12 24  1  0
 12 25  1  0
 13 26  1  1
 14 27  1  0
 14 28  1  0
M  END
$$$$

     RDKit          3D

 28 29  0  0  0  0  0  0  0  0999 V2000
    3.0398    0.1010    0.5948 C   0  0  0  0  0  0  0  0  0  0  0  0
    2.2445   -0.3144   -0.5481 N   0  0  0  0  0  0  0  0  0  0  0  0
    2.7430   -0.7389   -1.7183 N   0  0  0  0  0  0  0  0  0  0  0  0
    1.7536   -1.0286   -2.5244 N   0  0  0  0  0  0  0  0  0  0  0  0
    0.6019   -0.7946   -1.8833 C   0  0  0  0  0  0  0  0  0  0  0  0
    0.8865   -0.3447   -0.6368 C   0  0  0  0  0  0  0  0  0  0  0  0
   -0.0688    0.0402    0.4244 C   0  0  1  0  0  0  0  0  0  0  0  0
    0.5921   -0.2440    1.6478 O   0  0  0  0  0  0  0  0  0  0  0  0
   -0.4086    1.4997    0.4470 C   0  0  0  0  0  0  0  0  0  0  0  0
   -1.5893    1.8859   -0.3551 C   0  0  0  0  0  0  0  0  0  0  0  0
   -2.1695    0.9013   -1.1036 O   0  0  0  0  0  0  0  0  0  0  0  0
   -2.3993   -0.2900   -0.4977 C   0  0  0  0  0  0  0  0  0  0  0  0
   -1.3349   -0.7401    0.4601 C   0  0  1  0  0  0  0  0  0  0  0  0
   -1.0689   -2.1631    0.4066 N   0  0  0  0  0  0  0  0  0  0  0  0
    3.1271   -0.6690    1.3747 H   0  0  0  0  0  0  0  0  0  0  0  0
    2.7117    1.0870    0.9872 H   0  0  0  0  0  0  0  0  0  0  0  0
    4.0881    0.2877    0.2208 H   0  0  0  0  0  0  0  0  0  0  0  0
   -0.3726   -0.9532   -2.3259 H   0  0  0  0  0  0  0  0  0  0  0  0
    0.7110    0.5569    2.1995 H   0  0  0  0  0  0  0  0  0  0  0  0
   -0.5946    1.7887    1.5126 H   0  0  0  0  0  0  0  0  0  0  0  0
    0.5257    2.0504    0.1540 H   0  0  0  0  0  0  0  0  0  0  0  0
   -1.2669    2.6926   -1.0711 H   0  0  0  0  0  0  0  0  0  0  0  0
   -2.4064    2.3696    0.2544 H   0  0  0  0  0  0  0  0  0  0  0  0
   -3.4126   -0.2556   -0.0096 H   0  0  0  0  0  0  0  0  0  0  0  0
   -2.5066   -1.0745   -1.2735 H   0  0  0  0  0  0  0  0  0  0  0  0
   -1.7685   -0.5700    1.4912 H   0  0  0  0  0  0  0  0  0  0  0  0
   -0.0572   -2.3794    0.6206 H   0  0  0  0  0  0  0  0  0  0  0  0
   -1.6002   -2.7009    1.1516 H   0  0  0  0  0  0  0  0  0  0  0  0
  1  2  1  0
  2  3  1  0
  3  4  2  0
  4  5  1  0
  5  6  2  0
  6  7  1  0
  7  8  1  1
  7  9  1  0
  9 10  1  0
 10 11  1  0
 11 12  1  0
 12 13  1  0
 13 14  1  0
  6  2  1  0
 13  7  1  0
  1 15  1  0
  1 16  1  0
  1 17  1  0
  5 18  1  0
  8 19  1  0
  9 20  1  0
  9 21  1  0
 10 22  1  0
 10 23  1  0
 12 24  1  0
 12 25  1  0
 13 26  1  1
 14 27  1  0
 14 28  1  0
M  END
$$$$
