
     RDKit          3D

 27 27  0  0  0  0  0  0  0  0999 V2000
   -2.0636   -1.2919   -0.5642 C   0  0  0  0  0  0  0  0  0  0  0  0
   -1.8094    0.0762   -0.0375 C   0  0  0  0  0  0  0  0  0  0  0  0
   -3.0030    0.6186    0.6967 C   0  0  0  0  0  0  0  0  0  0  0  0
   -1.2849    1.0924   -1.0176 C   0  0  0  0  0  0  0  0  0  0  0  0
   -0.5633    1.6719    0.0964 N   0  0  0  0  0  0  0  0  0  0  0  0
   -0.5374    0.3414    0.6715 C   0  0  2  0  0  0  0  0  0  0  0  0
    0.6983   -0.3810    0.2067 C   0  0  0  0  0  0  0  0  0  0  0  0
    1.8494    0.0151    1.0360 N   0  0  0  0  0  0  0  0  0  0  0  0
    3.2603   -0.7996    0.5171 S   0  0  0  0  0  6  0  0  0  0  0  0
    4.1153    0.0871   -0.6935 N   0  0  0  0  0  0  0  0  0  0  0  0
    4.1865   -1.0140    1.6830 O   0  0  0  0  0  0  0  0  0  0  0  0
    2.9511   -2.1526   -0.0660 O   0  0  0  0  0  0  0  0  0  0  0  0
   -1.1913   -1.9353   -0.6622 H   0  0  0  0  0  0  0  0  0  0  0  0
   -2.5868   -1.2137   -1.5428 H   0  0  0  0  0  0  0  0  0  0  0  0
   -2.7903   -1.7976    0.1236 H   0  0  0  0  0  0  0  0  0  0  0  0
   -2.7303    0.7902    1.7607 H   0  0  0  0  0  0  0  0  0  0  0  0
   -3.3357    1.6156    0.2859 H   0  0  0  0  0  0  0  0  0  0  0  0
   -3.8634   -0.0843    0.6361 H   0  0  0  0  0  0  0  0  0  0  0  0
   -2.0607    1.7684   -1.4437 H   0  0  0  0  0  0  0  0  0  0  0  0
   -0.5810    0.6702   -1.7515 H   0  0  0  0  0  0  0  0  0  0  0  0
    0.3625    2.0615   -0.1036 H   0  0  0  0  0  0  0  0  0  0  0  0
   -0.6011    0.3676    1.7926 H   0  0  0  0  0  0  0  0  0  0  0  0
    1.0153   -0.1301   -0.8248 H   0  0  0  0  0  0  0  0  0  0  0  0
    0.6275   -1.4716    0.2678 H   0  0  0  0  0  0  0  0  0  0  0  0
    1.6451   -0.2557    2.0233 H   0  0  0  0  0  0  0  0  0  0  0  0
    4.8329    0.7323   -0.2664 H   0  0  0  0  0  0  0  0  0  0  0  0
    3.4580    0.6193   -1.3145 H   0  0  0  0  0  0  0  0  0  0  0  0
  1  2  1  0
  2  3  1  0
  2  4  1  0
  4  5  1  0
  5  6  1  0
  6  7  1  0
  7  8  1  0
  8  9  1  0
  9 10  1  0
  9 11  2  0
  9 12  2  0
  6  2  1  0
  1 13  1  0
  1 14  1  0
  1 15  1  0
  3 16  1  0
  3 17  1  0
  3 18  1  0
  4 19  1  0
  4 20  1  0
  5 21  1  0
  6 22  1  1
  7 23  1  0
  7 24  1  0
  8 25  1  0
 10 26  1  0
 10 27  1  0
M  END
$$$$

     RDKit          3D

 27 27  0  0  0  0  0  0  0  0999 V2000
   -2.7931    1.2549    0.2315 C   0  0  0  0  0  0  0  0  0  0  0  0
   -1.6374    0.2395    0.1713 C   0  0  0  0  0  0  0  0  0  0  0  0
   -1.7791   -0.7604    1.2212 C   0  0  0  0  0  0  0  0  0  0  0  0
   -1.5818   -0.2682   -1.2747 C   0  0  0  0  0  0  0  0  0  0  0  0
   -0.9253    1.0234   -1.5441 N   0  0  0  0  0  0  0  0  0  0  0  0
   -0.3937    0.9045   -0.1669 C   0  0  2  0  0  0  0  0  0  0  0  0
    0.9097    0.2468   -0.2412 C   0  0  0  0  0  0  0  0  0  0  0  0
    1.4069   -0.3825    0.9373 N   0  0  0  0  0  0  0  0  0  0  0  0
    2.9609   -1.0702    0.5446 S   0  0  0  0  0  6  0  0  0  0  0  0
    4.2157    0.0752    0.8323 N   0  0  0  0  0  0  0  0  0  0  0  0
    2.9614   -1.3873   -0.9244 O   0  0  0  0  0  0  0  0  0  0  0  0
    3.1896   -2.3518    1.2761 O   0  0  0  0  0  0  0  0  0  0  0  0
   -3.2267    1.3038    1.2476 H   0  0  0  0  0  0  0  0  0  0  0  0
   -3.6178    0.9425   -0.4424 H   0  0  0  0  0  0  0  0  0  0  0  0
   -2.4644    2.2601   -0.0426 H   0  0  0  0  0  0  0  0  0  0  0  0
   -1.2494   -0.5893    2.1655 H   0  0  0  0  0  0  0  0  0  0  0  0
   -2.8659   -0.8768    1.5125 H   0  0  0  0  0  0  0  0  0  0  0  0
   -1.4856   -1.7653    0.8509 H   0  0  0  0  0  0  0  0  0  0  0  0
   -2.5542   -0.3813   -1.7500 H   0  0  0  0  0  0  0  0  0  0  0  0
   -0.9477   -1.1447   -1.4305 H   0  0  0  0  0  0  0  0  0  0  0  0
   -0.2181    0.9950   -2.2804 H   0  0  0  0  0  0  0  0  0  0  0  0
   -0.3033    1.9648    0.2145 H   0  0  0  0  0  0  0  0  0  0  0  0
    1.0153   -0.4995   -1.0765 H   0  0  0  0  0  0  0  0  0  0  0  0
    1.6644    1.0463   -0.5172 H   0  0  0  0  0  0  0  0  0  0  0  0
    0.8323   -1.2460    1.1804 H   0  0  0  0  0  0  0  0  0  0  0  0
    5.0164   -0.4226    1.2334 H   0  0  0  0  0  0  0  0  0  0  0  0
    3.8711    0.8890    1.3517 H   0  0  0  0  0  0  0  0  0  0  0  0
  1  2  1  0
  2  3  1  0
  2  4  1  0
  4  5  1  0
  5  6  1  0
  6  7  1  0
  7  8  1  0
  8  9  1  0
  9 10  1  0
  9 11  2  0
  9 12  2  0
  6  2  1  0
  1 13  1  0
  1 14  1  0
  1 15  1  0
  3 16  1  0
  3 17  1  0
  3 18  1  0
  4 19  1  0
  4 20  1  0
  5 21  1  0
  6 22  1  1
  7 23  1  0
  7 24  1  0
  8 25  1  0
 10 26  1  0
 10 27  1  0
M  END
$$$$

     RDKit          3D

 27 27  0  0  0  0  0  0  0  0999 V2000
   -2.3924   -1.1575   -0.2354 C   0  0  0  0  0  0  0  0  0  0  0  0
   -1.6872    0.1630   -0.2376 C   0  0  0  0  0  0  0  0  0  0  0  0
   -1.8899    0.9825   -1.4766 C   0  0  0  0  0  0  0  0  0  0  0  0
   -1.9273    1.0388    0.9892 C   0  0  0  0  0  0  0  0  0  0  0  0
   -0.5787    1.5483    0.7269 N   0  0  0  0  0  0  0  0  0  0  0  0
   -0.3096    0.1515    0.3255 C   0  0  2  0  0  0  0  0  0  0  0  0
    0.8603   -0.0274   -0.5795 C   0  0  0  0  0  0  0  0  0  0  0  0
    1.5157   -1.2297   -0.0927 N   0  0  0  0  0  0  0  0  0  0  0  0
    3.2011   -1.0941   -0.0326 S   0  0  0  0  0  6  0  0  0  0  0  0
    3.8349    0.2882   -0.8269 N   0  0  0  0  0  0  0  0  0  0  0  0
    3.6690   -1.0071    1.4333 O   0  0  0  0  0  0  0  0  0  0  0  0
    3.8541   -2.3053   -0.6026 O   0  0  0  0  0  0  0  0  0  0  0  0
   -2.8731   -1.3087   -1.2325 H   0  0  0  0  0  0  0  0  0  0  0  0
   -3.1709   -1.1749    0.5378 H   0  0  0  0  0  0  0  0  0  0  0  0
   -1.6818   -2.0167   -0.1325 H   0  0  0  0  0  0  0  0  0  0  0  0
   -2.6810    0.4932   -2.0939 H   0  0  0  0  0  0  0  0  0  0  0  0
   -2.2877    2.0044   -1.2589 H   0  0  0  0  0  0  0  0  0  0  0  0
   -0.9707    1.1325   -2.0707 H   0  0  0  0  0  0  0  0  0  0  0  0
   -1.9066    0.3993    1.8842 H   0  0  0  0  0  0  0  0  0  0  0  0
   -2.7335    1.7719    0.8959 H   0  0  0  0  0  0  0  0  0  0  0  0
   -0.0566    1.8552    1.5625 H   0  0  0  0  0  0  0  0  0  0  0  0
   -0.2920   -0.4402    1.2808 H   0  0  0  0  0  0  0  0  0  0  0  0
    1.5455    0.8131   -0.5636 H   0  0  0  0  0  0  0  0  0  0  0  0
    0.5441   -0.2495   -1.6408 H   0  0  0  0  0  0  0  0  0  0  0  0
    1.1781   -2.1081   -0.5587 H   0  0  0  0  0  0  0  0  0  0  0  0
    3.5611    0.3026   -1.8248 H   0  0  0  0  0  0  0  0  0  0  0  0
    3.6751    1.1748   -0.3183 H   0  0  0  0  0  0  0  0  0  0  0  0
  1  2  1  0
  2  3  1  0
  2  4  1  0
  4  5  1  0
  5  6  1  0
  6  7  1  0
  7  8  1  0
  8  9  1  0
  9 10  1  0
  9 11  2  0
  9 12  2  0
  6  2  1  0
  1 13  1  0
  1 14  1  0
  1 15  1  0
  3 16  1  0
  3 17  1  0
  3 18  1  0
  4 19  1  0
  4 20  1  0
  5 21  1  0
  6 22  1  1
  7 23  1  0
  7 24  1  0
  8 25  1  0
 10 26  1  0
 10 27  1  0
M  END
$$$$

     RDKit          3D

 27 27  0  0  0  0  0  0  0  0999 V2000
   -2.1839    1.1863    0.2046 C   0  0  0  0  0  0  0  0  0  0  0  0
   -1.7645   -0.1916   -0.1595 C   0  0  0  0  0  0  0  0  0  0  0  0
   -2.3652   -0.7485   -1.4449 C   0  0  0  0  0  0  0  0  0  0  0  0
   -2.1363   -1.1507    0.9838 C   0  0  0  0  0  0  0  0  0  0  0  0
   -0.8275   -0.7975    1.5577 N   0  0  0  0  0  0  0  0  0  0  0  0
   -0.3896   -0.6285    0.1632 C   0  0  2  0  0  0  0  0  0  0  0  0
    0.7272    0.3423    0.0382 C   0  0  0  0  0  0  0  0  0  0  0  0
    1.9611   -0.3292    0.4093 N   0  0  0  0  0  0  0  0  0  0  0  0
    3.3308    0.6805    0.3088 S   0  0  0  0  0  6  0  0  0  0  0  0
    4.0827    0.6352   -1.2422 N   0  0  0  0  0  0  0  0  0  0  0  0
    2.9471    2.0700    0.7142 O   0  0  0  0  0  0  0  0  0  0  0  0
    4.3377    0.1922    1.3282 O   0  0  0  0  0  0  0  0  0  0  0  0
   -1.5007    1.9848   -0.0622 H   0  0  0  0  0  0  0  0  0  0  0  0
   -2.4202    1.2958    1.3011 H   0  0  0  0  0  0  0  0  0  0  0  0
   -3.1604    1.3996   -0.3059 H   0  0  0  0  0  0  0  0  0  0  0  0
   -2.2515   -0.0481   -2.2888 H   0  0  0  0  0  0  0  0  0  0  0  0
   -1.8746   -1.7006   -1.6826 H   0  0  0  0  0  0  0  0  0  0  0  0
   -3.4307   -0.9829   -1.2229 H   0  0  0  0  0  0  0  0  0  0  0  0
   -2.9984   -0.8370    1.5726 H   0  0  0  0  0  0  0  0  0  0  0  0
   -2.0927   -2.2177    0.6869 H   0  0  0  0  0  0  0  0  0  0  0  0
   -0.3534   -1.5775    2.0418 H   0  0  0  0  0  0  0  0  0  0  0  0
   -0.1520   -1.6028   -0.2861 H   0  0  0  0  0  0  0  0  0  0  0  0
    0.6157    1.2668    0.5947 H   0  0  0  0  0  0  0  0  0  0  0  0
    0.8514    0.6192   -1.0449 H   0  0  0  0  0  0  0  0  0  0  0  0
    1.8662   -0.8432    1.2946 H   0  0  0  0  0  0  0  0  0  0  0  0
    4.0793    1.6138   -1.6144 H   0  0  0  0  0  0  0  0  0  0  0  0
    5.1024    0.3692   -1.1727 H   0  0  0  0  0  0  0  0  0  0  0  0
  1  2  1  0
  2  3  1  0
  2  4  1  0
  4  5  1  0
  5  6  1  0
  6  7  1  0
  7  8  1  0
  8  9  1  0
  9 10  1  0
  9 11  2  0
  9 12  2  0
  6  2  1  0
  1 13  1  0
  1 14  1  0
  1 15  1  0
  3 16  1  0
  3 17  1  0
  3 18  1  0
  4 19  1  0
  4 20  1  0
  5 21  1  0
  6 22  1  6
  7 23  1  0
  7 24  1  0
  8 25  1  0
 10 26  1  0
 10 27  1  0
M  END
$$$$

     RDKit          3D

 27 27  0  0  0  0  0  0  0  0999 V2000
   -1.6359    0.2153   -1.5380 C   0  0  0  0  0  0  0  0  0  0  0  0
   -1.6819   -0.2876   -0.1007 C   0  0  0  0  0  0  0  0  0  0  0  0
   -2.3793   -1.5934    0.0067 C   0  0  0  0  0  0  0  0  0  0  0  0
   -2.2239    0.7807    0.8696 C   0  0  0  0  0  0  0  0  0  0  0  0
   -0.8454    1.2611    0.9876 N   0  0  0  0  0  0  0  0  0  0  0  0
   -0.4228   -0.0750    0.6839 C   0  0  2  0  0  0  0  0  0  0  0  0
    0.8507   -0.2368   -0.0209 C   0  0  0  0  0  0  0  0  0  0  0  0
    1.6585    0.9051    0.2524 N   0  0  0  0  0  0  0  0  0  0  0  0
    3.2843    0.8511    0.1002 S   0  0  0  0  0  6  0  0  0  0  0  0
    3.9144   -0.7241   -0.1810 N   0  0  0  0  0  0  0  0  0  0  0  0
    3.8396    1.2533    1.4890 O   0  0  0  0  0  0  0  0  0  0  0  0
    3.8734    1.8085   -0.8611 O   0  0  0  0  0  0  0  0  0  0  0  0
   -2.6582    0.4731   -1.8379 H   0  0  0  0  0  0  0  0  0  0  0  0
   -1.2876   -0.6197   -2.1542 H   0  0  0  0  0  0  0  0  0  0  0  0
   -0.9758    1.0823   -1.6851 H   0  0  0  0  0  0  0  0  0  0  0  0
   -2.4475   -1.9586    1.0424 H   0  0  0  0  0  0  0  0  0  0  0  0
   -1.8162   -2.3087   -0.6313 H   0  0  0  0  0  0  0  0  0  0  0  0
   -3.4147   -1.4790   -0.3942 H   0  0  0  0  0  0  0  0  0  0  0  0
   -2.5169    0.3420    1.8475 H   0  0  0  0  0  0  0  0  0  0  0  0
   -2.9299    1.4966    0.4377 H   0  0  0  0  0  0  0  0  0  0  0  0
   -0.6685    1.9280    0.1862 H   0  0  0  0  0  0  0  0  0  0  0  0
   -0.5168   -0.7001    1.6310 H   0  0  0  0  0  0  0  0  0  0  0  0
    1.4035   -1.1658    0.2835 H   0  0  0  0  0  0  0  0  0  0  0  0
    0.6493   -0.3300   -1.0958 H   0  0  0  0  0  0  0  0  0  0  0  0
    1.2412    1.5957    0.9331 H   0  0  0  0  0  0  0  0  0  0  0  0
    3.3852   -1.2909   -0.8609 H   0  0  0  0  0  0  0  0  0  0  0  0
    4.3211   -1.2230    0.6102 H   0  0  0  0  0  0  0  0  0  0  0  0
  1  2  1  0
  2  3  1  0
  2  4  1  0
  4  5  1  0
  5  6  1  0
  6  7  1  0
  7  8  1  0
  8  9  1  0
  9 10  1  0
  9 11  2  0
  9 12  2  0
  6  2  1  0
  1 13  1  0
  1 14  1  0
  1 15  1  0
  3 16  1  0
  3 17  1  0
  3 18  1  0
  4 19  1  0
  4 20  1  0
  5 21  1  0
  6 22  1  1
  7 23  1  0
  7 24  1  0
  8 25  1  0
 10 26  1  0
 10 27  1  0
M  END
$$$$

     RDKit          3D

 27 27  0  0  0  0  0  0  0  0999 V2000
   -1.6683    1.6204   -0.6742 C   0  0  0  0  0  0  0  0  0  0  0  0
   -1.4888    0.2681   -0.0434 C   0  0  0  0  0  0  0  0  0  0  0  0
   -1.2071    0.2694    1.4282 C   0  0  0  0  0  0  0  0  0  0  0  0
   -2.6996   -0.6231   -0.3095 C   0  0  0  0  0  0  0  0  0  0  0  0
   -1.7520   -1.7361   -0.3594 N   0  0  0  0  0  0  0  0  0  0  0  0
   -0.7829   -0.7656   -0.8656 C   0  0  2  0  0  0  0  0  0  0  0  0
    0.6460   -1.0507   -0.5301 C   0  0  0  0  0  0  0  0  0  0  0  0
    1.2761   -0.0555    0.2918 N   0  0  0  0  0  0  0  0  0  0  0  0
    2.9756   -0.1079   -0.0647 S   0  0  0  0  0  6  0  0  0  0  0  0
    3.8840    0.8761    1.0121 N   0  0  0  0  0  0  0  0  0  0  0  0
    3.4650   -1.5305    0.0709 O   0  0  0  0  0  0  0  0  0  0  0  0
    3.2302    0.2869   -1.4942 O   0  0  0  0  0  0  0  0  0  0  0  0
   -0.9552    1.7727   -1.4988 H   0  0  0  0  0  0  0  0  0  0  0  0
   -1.4308    2.3930    0.0973 H   0  0  0  0  0  0  0  0  0  0  0  0
   -2.7238    1.7713   -0.9575 H   0  0  0  0  0  0  0  0  0  0  0  0
   -0.6482   -0.6123    1.7697 H   0  0  0  0  0  0  0  0  0  0  0  0
   -2.1827    0.2620    1.9768 H   0  0  0  0  0  0  0  0  0  0  0  0
   -0.7155    1.2188    1.7205 H   0  0  0  0  0  0  0  0  0  0  0  0
   -3.4201   -0.6609    0.5215 H   0  0  0  0  0  0  0  0  0  0  0  0
   -3.1824   -0.4521   -1.2994 H   0  0  0  0  0  0  0  0  0  0  0  0
   -1.5108   -2.1165    0.5760 H   0  0  0  0  0  0  0  0  0  0  0  0
   -0.9984   -0.5914   -1.9468 H   0  0  0  0  0  0  0  0  0  0  0  0
    0.7042   -2.0515   -0.0721 H   0  0  0  0  0  0  0  0  0  0  0  0
    1.2073   -1.0977   -1.4988 H   0  0  0  0  0  0  0  0  0  0  0  0
    0.9661    0.9086    0.0411 H   0  0  0  0  0  0  0  0  0  0  0  0
    4.5262    1.4701    0.4439 H   0  0  0  0  0  0  0  0  0  0  0  0
    4.4856    0.3344    1.6648 H   0  0  0  0  0  0  0  0  0  0  0  0
  1  2  1  0
  2  3  1  0
  2  4  1  0
  4  5  1  0
  5  6  1  0
  6  7  1  0
  7  8  1  0
  8  9  1  0
  9 10  1  0
  9 11  2  0
  9 12  2  0
  6  2  1  0
  1 13  1  0
  1 14  1  0
  1 15  1  0
  3 16  1  0
  3 17  1  0
  3 18  1  0
  4 19  1  0
  4 20  1  0
  5 21  1  0
  6 22  1  6
  7 23  1  0
  7 24  1  0
  8 25  1  0
 10 26  1  0
 10 27  1  0
M  END
$$$$

     RDKit          3D

 27 27  0  0  0  0  0  0  0  0999 V2000
   -1.6612   -1.1710   -0.6375 C   0  0  0  0  0  0  0  0  0  0  0  0
   -1.6061    0.1687    0.0416 C   0  0  0  0  0  0  0  0  0  0  0  0
   -2.9054    0.5814    0.7073 C   0  0  0  0  0  0  0  0  0  0  0  0
   -1.0915    1.2835   -0.8210 C   0  0  0  0  0  0  0  0  0  0  0  0
   -0.3044    1.7503    0.2940 N   0  0  0  0  0  0  0  0  0  0  0  0
   -0.4431    0.4488    0.9062 C   0  0  2  0  0  0  0  0  0  0  0  0
    0.7964   -0.3859    0.7429 C   0  0  0  0  0  0  0  0  0  0  0  0
    1.3396   -0.2709   -0.5717 N   0  0  0  0  0  0  0  0  0  0  0  0
    2.7578   -1.2172   -0.7999 S   0  0  0  0  0  6  0  0  0  0  0  0
    4.1218   -0.2646   -0.3446 N   0  0  0  0  0  0  0  0  0  0  0  0
    2.7149   -2.4246    0.1041 O   0  0  0  0  0  0  0  0  0  0  0  0
    2.8640   -1.6548   -2.2222 O   0  0  0  0  0  0  0  0  0  0  0  0
   -2.7275   -1.4702   -0.7075 H   0  0  0  0  0  0  0  0  0  0  0  0
   -1.1350   -1.9638   -0.0885 H   0  0  0  0  0  0  0  0  0  0  0  0
   -1.2801   -1.0402   -1.6627 H   0  0  0  0  0  0  0  0  0  0  0  0
   -3.4915    1.1311   -0.0705 H   0  0  0  0  0  0  0  0  0  0  0  0
   -2.7416    1.2547    1.5714 H   0  0  0  0  0  0  0  0  0  0  0  0
   -3.4860   -0.3119    1.0580 H   0  0  0  0  0  0  0  0  0  0  0  0
   -0.5094    0.8638   -1.6621 H   0  0  0  0  0  0  0  0  0  0  0  0
   -1.8976    1.9925   -1.1283 H   0  0  0  0  0  0  0  0  0  0  0  0
   -0.6657    2.5557    0.8135 H   0  0  0  0  0  0  0  0  0  0  0  0
   -0.7354    0.5242    1.9992 H   0  0  0  0  0  0  0  0  0  0  0  0
    0.5870   -1.4792    0.9164 H   0  0  0  0  0  0  0  0  0  0  0  0
    1.5528   -0.0669    1.4891 H   0  0  0  0  0  0  0  0  0  0  0  0
    1.6465    0.7410   -0.6987 H   0  0  0  0  0  0  0  0  0  0  0  0
    3.9723    0.7532   -0.5390 H   0  0  0  0  0  0  0  0  0  0  0  0
    4.3286   -0.3278    0.6776 H   0  0  0  0  0  0  0  0  0  0  0  0
  1  2  1  0
  2  3  1  0
  2  4  1  0
  4  5  1  0
  5  6  1  0
  6  7  1  0
  7  8  1  0
  8  9  1  0
  9 10  1  0
  9 11  2  0
  9 12  2  0
  6  2  1  0
  1 13  1  0
  1 14  1  0
  1 15  1  0
  3 16  1  0
  3 17  1  0
  3 18  1  0
  4 19  1  0
  4 20  1  0
  5 21  1  0
  6 22  1  1
  7 23  1  0
  7 24  1  0
  8 25  1  0
 10 26  1  0
 10 27  1  0
M  END
$$$$

     RDKit          3D

 27 27  0  0  0  0  0  0  0  0999 V2000
   -2.0937    0.9972   -0.6343 C   0  0  0  0  0  0  0  0  0  0  0  0
   -1.7317   -0.1760    0.2147 C   0  0  0  0  0  0  0  0  0  0  0  0
   -2.7813   -1.2647    0.2096 C   0  0  0  0  0  0  0  0  0  0  0  0
   -1.2880    0.1169    1.6127 C   0  0  0  0  0  0  0  0  0  0  0  0
   -0.3293   -0.9691    1.4979 N   0  0  0  0  0  0  0  0  0  0  0  0
   -0.3604   -0.7461    0.0434 C   0  0  2  0  0  0  0  0  0  0  0  0
    0.7303    0.2529   -0.2894 C   0  0  0  0  0  0  0  0  0  0  0  0
    1.9664   -0.5230   -0.4083 N   0  0  0  0  0  0  0  0  0  0  0  0
    3.3133    0.4493   -0.7840 S   0  0  0  0  0  6  0  0  0  0  0  0
    4.0140    0.9615    0.7239 N   0  0  0  0  0  0  0  0  0  0  0  0
    2.9112    1.6991   -1.5485 O   0  0  0  0  0  0  0  0  0  0  0  0
    4.3740   -0.2754   -1.5394 O   0  0  0  0  0  0  0  0  0  0  0  0
   -1.7209    0.9152   -1.6744 H   0  0  0  0  0  0  0  0  0  0  0  0
   -3.2042    1.0454   -0.7063 H   0  0  0  0  0  0  0  0  0  0  0  0
   -1.7769    1.9719   -0.2083 H   0  0  0  0  0  0  0  0  0  0  0  0
   -3.0162   -1.5709   -0.8253 H   0  0  0  0  0  0  0  0  0  0  0  0
   -3.7093   -0.9233    0.7444 H   0  0  0  0  0  0  0  0  0  0  0  0
   -2.4136   -2.1344    0.7977 H   0  0  0  0  0  0  0  0  0  0  0  0
   -2.0568   -0.0416    2.4029 H   0  0  0  0  0  0  0  0  0  0  0  0
   -0.8178    1.1056    1.6753 H   0  0  0  0  0  0  0  0  0  0  0  0
   -0.6540   -1.8900    1.8011 H   0  0  0  0  0  0  0  0  0  0  0  0
   -0.2545   -1.6449   -0.5623 H   0  0  0  0  0  0  0  0  0  0  0  0
    0.9062    0.9724    0.5471 H   0  0  0  0  0  0  0  0  0  0  0  0
    0.5415    0.7687   -1.2293 H   0  0  0  0  0  0  0  0  0  0  0  0
    2.1727   -1.0405    0.4746 H   0  0  0  0  0  0  0  0  0  0  0  0
    3.8838    0.1940    1.4482 H   0  0  0  0  0  0  0  0  0  0  0  0
    3.3953    1.7499    1.0797 H   0  0  0  0  0  0  0  0  0  0  0  0
  1  2  1  0
  2  3  1  0
  2  4  1  0
  4  5  1  0
  5  6  1  0
  6  7  1  0
  7  8  1  0
  8  9  1  0
  9 10  1  0
  9 11  2  0
  9 12  2  0
  6  2  1  0
  1 13  1  0
  1 14  1  0
  1 15  1  0
  3 16  1  0
  3 17  1  0
  3 18  1  0
  4 19  1  0
  4 20  1  0
  5 21  1  0
  6 22  1  6
  7 23  1  0
  7 24  1  0
  8 25  1  0
 10 26  1  0
 10 27  1  0
M  END
$$$$
