
     RDKit          3D

 28 28  0  0  0  0  0  0  0  0999 V2000
    5.4491    0.1339    0.3046 N   0  0  0  0  0  0  0  0  0  0  0  0
    4.2546    0.1893   -0.4642 C   0  0  0  0  0  0  0  0  0  0  0  0
    4.2719    0.4102   -1.6891 O   0  0  0  0  0  0  0  0  0  0  0  0
    2.9596   -0.0241    0.2272 C   0  0  0  0  0  0  0  0  0  0  0  0
    1.7926    0.0677   -0.7354 C   0  0  0  0  0  0  0  0  0  0  0  0
    0.5445   -0.1646    0.0791 C   0  0  0  0  0  0  0  0  0  0  0  0
   -0.6631   -0.1060   -0.7133 N   0  0  0  0  0  0  0  0  0  0  0  0
   -1.7654   -0.3463    0.2017 C   0  0  0  0  0  0  0  0  0  0  0  0
   -3.1005   -0.3137   -0.4955 C   0  0  1  0  0  0  0  0  0  0  0  0
   -4.2055   -0.5708    0.5123 C   0  0  0  0  0  0  0  0  0  0  0  0
   -4.0263    0.8628    0.8173 C   0  0  0  0  0  0  0  0  0  0  0  0
   -4.1589    1.6049    1.8059 O   0  0  0  0  0  0  0  0  0  0  0  0
   -3.6263    1.0599   -0.5239 N   0  0  0  0  0  0  0  0  0  0  0  0
    6.0183    1.0001    0.3673 H   0  0  0  0  0  0  0  0  0  0  0  0
    5.7296   -0.7571    0.7838 H   0  0  0  0  0  0  0  0  0  0  0  0
    2.9077   -1.0045    0.7375 H   0  0  0  0  0  0  0  0  0  0  0  0
    2.8630    0.7452    1.0381 H   0  0  0  0  0  0  0  0  0  0  0  0
    1.7439    1.0959   -1.1674 H   0  0  0  0  0  0  0  0  0  0  0  0
    1.9342   -0.6509   -1.5399 H   0  0  0  0  0  0  0  0  0  0  0  0
    0.6033   -1.1048    0.6529 H   0  0  0  0  0  0  0  0  0  0  0  0
    0.4827    0.6828    0.8173 H   0  0  0  0  0  0  0  0  0  0  0  0
   -0.6743   -0.9303   -1.3837 H   0  0  0  0  0  0  0  0  0  0  0  0
   -1.6192   -1.2855    0.7626 H   0  0  0  0  0  0  0  0  0  0  0  0
   -1.7604    0.4670    0.9860 H   0  0  0  0  0  0  0  0  0  0  0  0
   -3.1671   -0.8536   -1.4363 H   0  0  0  0  0  0  0  0  0  0  0  0
   -3.9548   -1.2812    1.3087 H   0  0  0  0  0  0  0  0  0  0  0  0
   -5.1805   -0.7250    0.0063 H   0  0  0  0  0  0  0  0  0  0  0  0
   -3.6527    1.7985   -1.2599 H   0  0  0  0  0  0  0  0  0  0  0  0
  1  2  1  0
  2  3  2  0
  2  4  1  0
  4  5  1  0
  5  6  1  0
  6  7  1  0
  7  8  1  0
  8  9  1  0
  9 10  1  0
 10 11  1  0
 11 12  2  0
 11 13  1  0
 13  9  1  0
  1 14  1  0
  1 15  1  0
  4 16  1  0
  4 17  1  0
  5 18  1  0
  5 19  1  0
  6 20  1  0
  6 21  1  0
  7 22  1  0
  8 23  1  0
  8 24  1  0
  9 25  1  6
 10 26  1  0
 10 27  1  0
 13 28  1  0
M  END
$$$$

     RDKit          3D

 28 28  0  0  0  0  0  0  0  0999 V2000
   -4.5630    1.0160    0.5436 N   0  0  0  0  0  0  0  0  0  0  0  0
   -3.3806    0.7190   -0.1659 C   0  0  0  0  0  0  0  0  0  0  0  0
   -3.1805    1.2838   -1.2680 O   0  0  0  0  0  0  0  0  0  0  0  0
   -2.3912   -0.2406    0.3766 C   0  0  0  0  0  0  0  0  0  0  0  0
   -1.2956   -0.4245   -0.6262 C   0  0  0  0  0  0  0  0  0  0  0  0
   -0.2490   -1.4150   -0.1002 C   0  0  0  0  0  0  0  0  0  0  0  0
    0.8001   -1.6105   -1.0452 N   0  0  0  0  0  0  0  0  0  0  0  0
    1.6553   -0.4877   -1.2862 C   0  0  0  0  0  0  0  0  0  0  0  0
    2.4811   -0.1920   -0.0802 C   0  0  1  0  0  0  0  0  0  0  0  0
    3.4428    0.9980   -0.2785 C   0  0  0  0  0  0  0  0  0  0  0  0
    3.1701    1.1835    1.1636 C   0  0  0  0  0  0  0  0  0  0  0  0
    3.7560    1.5811    2.1888 O   0  0  0  0  0  0  0  0  0  0  0  0
    1.8626    0.6894    0.9100 N   0  0  0  0  0  0  0  0  0  0  0  0
   -5.0941    1.8989    0.4502 H   0  0  0  0  0  0  0  0  0  0  0  0
   -4.9402    0.2907    1.2177 H   0  0  0  0  0  0  0  0  0  0  0  0
   -2.9008   -1.1819    0.6659 H   0  0  0  0  0  0  0  0  0  0  0  0
   -1.9682    0.1615    1.3425 H   0  0  0  0  0  0  0  0  0  0  0  0
   -1.7399   -0.8425   -1.5424 H   0  0  0  0  0  0  0  0  0  0  0  0
   -0.8350    0.5592   -0.8009 H   0  0  0  0  0  0  0  0  0  0  0  0
    0.0520   -1.2005    0.9287 H   0  0  0  0  0  0  0  0  0  0  0  0
   -0.8120   -2.3978   -0.0386 H   0  0  0  0  0  0  0  0  0  0  0  0
    1.2956   -2.4886   -0.8648 H   0  0  0  0  0  0  0  0  0  0  0  0
    2.3460   -0.7856   -2.1286 H   0  0  0  0  0  0  0  0  0  0  0  0
    1.0867    0.4268   -1.5565 H   0  0  0  0  0  0  0  0  0  0  0  0
    3.0040   -1.0155    0.4026 H   0  0  0  0  0  0  0  0  0  0  0  0
    2.9816    1.8173   -0.8614 H   0  0  0  0  0  0  0  0  0  0  0  0
    4.4562    0.7158   -0.5611 H   0  0  0  0  0  0  0  0  0  0  0  0
    0.9600    0.9415    1.3228 H   0  0  0  0  0  0  0  0  0  0  0  0
  1  2  1  0
  2  3  2  0
  2  4  1  0
  4  5  1  0
  5  6  1  0
  6  7  1  0
  7  8  1  0
  8  9  1  0
  9 10  1  0
 10 11  1  0
 11 12  2  0
 11 13  1  0
 13  9  1  0
  1 14  1  0
  1 15  1  0
  4 16  1  0
  4 17  1  0
  5 18  1  0
  5 19  1  0
  6 20  1  0
  6 21  1  0
  7 22  1  0
  8 23  1  0
  8 24  1  0
  9 25  1  1
 10 26  1  0
 10 27  1  0
 13 28  1  0
M  END
$$$$

     RDKit          3D

 28 28  0  0  0  0  0  0  0  0999 V2000
    4.0123   -0.3618    1.2334 N   0  0  0  0  0  0  0  0  0  0  0  0
    3.2054    0.4336    0.3598 C   0  0  0  0  0  0  0  0  0  0  0  0
    3.2779    1.6626    0.4836 O   0  0  0  0  0  0  0  0  0  0  0  0
    2.3380   -0.2015   -0.6341 C   0  0  0  0  0  0  0  0  0  0  0  0
    1.4233    0.7765   -1.2939 C   0  0  0  0  0  0  0  0  0  0  0  0
    0.5134    1.4125   -0.2811 C   0  0  0  0  0  0  0  0  0  0  0  0
   -0.2937    0.4492    0.3887 N   0  0  0  0  0  0  0  0  0  0  0  0
   -1.2397   -0.1334   -0.5078 C   0  0  0  0  0  0  0  0  0  0  0  0
   -2.1114   -1.1589    0.2004 C   0  0  1  0  0  0  0  0  0  0  0  0
   -2.8881   -0.5041    1.3501 C   0  0  0  0  0  0  0  0  0  0  0  0
   -3.7255   -0.0073    0.2291 C   0  0  0  0  0  0  0  0  0  0  0  0
   -4.4161    0.9737   -0.0925 O   0  0  0  0  0  0  0  0  0  0  0  0
   -3.4077   -1.2372   -0.4447 N   0  0  0  0  0  0  0  0  0  0  0  0
    3.5916   -1.2091    1.6302 H   0  0  0  0  0  0  0  0  0  0  0  0
    5.0025   -0.0624    1.4447 H   0  0  0  0  0  0  0  0  0  0  0  0
    2.9565   -0.7662   -1.3835 H   0  0  0  0  0  0  0  0  0  0  0  0
    1.7577   -1.0244   -0.1218 H   0  0  0  0  0  0  0  0  0  0  0  0
    0.8488    0.3259   -2.1401 H   0  0  0  0  0  0  0  0  0  0  0  0
    2.0496    1.6031   -1.7321 H   0  0  0  0  0  0  0  0  0  0  0  0
   -0.1580    2.1404   -0.8230 H   0  0  0  0  0  0  0  0  0  0  0  0
    1.0538    2.0270    0.4552 H   0  0  0  0  0  0  0  0  0  0  0  0
    0.2438   -0.2475    0.8977 H   0  0  0  0  0  0  0  0  0  0  0  0
   -0.7856   -0.6161   -1.3898 H   0  0  0  0  0  0  0  0  0  0  0  0
   -1.9307    0.6518   -0.9207 H   0  0  0  0  0  0  0  0  0  0  0  0
   -1.6369   -2.1080    0.4395 H   0  0  0  0  0  0  0  0  0  0  0  0
   -3.4169   -1.2552    1.9684 H   0  0  0  0  0  0  0  0  0  0  0  0
   -2.3132    0.2674    1.8903 H   0  0  0  0  0  0  0  0  0  0  0  0
   -3.9512   -1.8306   -1.0890 H   0  0  0  0  0  0  0  0  0  0  0  0
  1  2  1  0
  2  3  2  0
  2  4  1  0
  4  5  1  0
  5  6  1  0
  6  7  1  0
  7  8  1  0
  8  9  1  0
  9 10  1  0
 10 11  1  0
 11 12  2  0
 11 13  1  0
 13  9  1  0
  1 14  1  0
  1 15  1  0
  4 16  1  0
  4 17  1  0
  5 18  1  0
  5 19  1  0
  6 20  1  0
  6 21  1  0
  7 22  1  0
  8 23  1  0
  8 24  1  0
  9 25  1  1
 10 26  1  0
 10 27  1  0
 13 28  1  0
M  END
$$$$

     RDKit          3D

 28 28  0  0  0  0  0  0  0  0999 V2000
    4.4718    0.3631    0.3535 N   0  0  0  0  0  0  0  0  0  0  0  0
    3.2505    1.0312    0.0445 C   0  0  0  0  0  0  0  0  0  0  0  0
    3.2142    1.7756   -0.9545 O   0  0  0  0  0  0  0  0  0  0  0  0
    2.0472    0.8605    0.8773 C   0  0  0  0  0  0  0  0  0  0  0  0
    0.7784    1.3667    0.2768 C   0  0  0  0  0  0  0  0  0  0  0  0
    0.4457    0.6265   -0.9934 C   0  0  0  0  0  0  0  0  0  0  0  0
    0.2856   -0.7637   -0.7602 N   0  0  0  0  0  0  0  0  0  0  0  0
   -0.7972   -1.2146    0.0163 C   0  0  0  0  0  0  0  0  0  0  0  0
   -2.1325   -1.0011   -0.6427 C   0  0  1  0  0  0  0  0  0  0  0  0
   -3.2906   -1.5417    0.2191 C   0  0  0  0  0  0  0  0  0  0  0  0
   -3.9357   -0.2423    0.0022 C   0  0  0  0  0  0  0  0  0  0  0  0
   -5.1033    0.2272    0.1116 O   0  0  0  0  0  0  0  0  0  0  0  0
   -2.6716    0.3267   -0.4027 N   0  0  0  0  0  0  0  0  0  0  0  0
    5.0813    0.6948    1.1463 H   0  0  0  0  0  0  0  0  0  0  0  0
    4.7573   -0.4515   -0.2060 H   0  0  0  0  0  0  0  0  0  0  0  0
    2.2457    1.3570    1.8764 H   0  0  0  0  0  0  0  0  0  0  0  0
    1.9777   -0.2449    1.0986 H   0  0  0  0  0  0  0  0  0  0  0  0
   -0.0628    1.2229    1.0044 H   0  0  0  0  0  0  0  0  0  0  0  0
    0.8482    2.4604    0.0514 H   0  0  0  0  0  0  0  0  0  0  0  0
    1.3633    0.7250   -1.6632 H   0  0  0  0  0  0  0  0  0  0  0  0
   -0.3702    1.1061   -1.5839 H   0  0  0  0  0  0  0  0  0  0  0  0
    0.4843   -1.3777   -1.5713 H   0  0  0  0  0  0  0  0  0  0  0  0
   -0.6900   -2.3394    0.1178 H   0  0  0  0  0  0  0  0  0  0  0  0
   -0.8196   -0.7992    1.0509 H   0  0  0  0  0  0  0  0  0  0  0  0
   -2.1750   -1.3577   -1.6876 H   0  0  0  0  0  0  0  0  0  0  0  0
   -3.8208   -2.3771   -0.3107 H   0  0  0  0  0  0  0  0  0  0  0  0
   -3.0049   -1.7384    1.2606 H   0  0  0  0  0  0  0  0  0  0  0  0
   -2.3770    1.3056   -0.4595 H   0  0  0  0  0  0  0  0  0  0  0  0
  1  2  1  0
  2  3  2  0
  2  4  1  0
  4  5  1  0
  5  6  1  0
  6  7  1  0
  7  8  1  0
  8  9  1  0
  9 10  1  0
 10 11  1  0
 11 12  2  0
 11 13  1  0
 13  9  1  0
  1 14  1  0
  1 15  1  0
  4 16  1  0
  4 17  1  0
  5 18  1  0
  5 19  1  0
  6 20  1  0
  6 21  1  0
  7 22  1  0
  8 23  1  0
  8 24  1  0
  9 25  1  6
 10 26  1  0
 10 27  1  0
 13 28  1  0
M  END
$$$$

     RDKit          3D

 28 28  0  0  0  0  0  0  0  0999 V2000
    4.3593   -0.5539    1.1796 N   0  0  0  0  0  0  0  0  0  0  0  0
    2.9542   -0.5727    0.9504 C   0  0  0  0  0  0  0  0  0  0  0  0
    2.2136   -0.0337    1.7944 O   0  0  0  0  0  0  0  0  0  0  0  0
    2.4593   -1.2275   -0.2624 C   0  0  0  0  0  0  0  0  0  0  0  0
    1.0091   -0.7874   -0.5041 C   0  0  0  0  0  0  0  0  0  0  0  0
    0.9835    0.6791   -0.7490 C   0  0  0  0  0  0  0  0  0  0  0  0
   -0.2282    1.2775   -1.0779 N   0  0  0  0  0  0  0  0  0  0  0  0
   -1.3102    1.3826   -0.2077 C   0  0  0  0  0  0  0  0  0  0  0  0
   -2.0813    0.1399    0.0267 C   0  0  1  0  0  0  0  0  0  0  0  0
   -3.2578    0.2807    0.9902 C   0  0  0  0  0  0  0  0  0  0  0  0
   -3.8956   -0.6663    0.0564 C   0  0  0  0  0  0  0  0  0  0  0  0
   -4.7154   -1.5966    0.1046 O   0  0  0  0  0  0  0  0  0  0  0  0
   -3.1602   -0.0610   -0.9858 N   0  0  0  0  0  0  0  0  0  0  0  0
    4.7743   -0.4823    2.1284 H   0  0  0  0  0  0  0  0  0  0  0  0
    5.0148   -0.6135    0.3729 H   0  0  0  0  0  0  0  0  0  0  0  0
    2.4050   -2.3430   -0.1062 H   0  0  0  0  0  0  0  0  0  0  0  0
    3.0658   -1.0394   -1.1579 H   0  0  0  0  0  0  0  0  0  0  0  0
    0.5047   -1.3834   -1.2704 H   0  0  0  0  0  0  0  0  0  0  0  0
    0.5432   -0.9548    0.5212 H   0  0  0  0  0  0  0  0  0  0  0  0
    1.7347    0.8578   -1.5942 H   0  0  0  0  0  0  0  0  0  0  0  0
    1.4618    1.2079    0.1259 H   0  0  0  0  0  0  0  0  0  0  0  0
   -0.1855    1.9958   -1.8467 H   0  0  0  0  0  0  0  0  0  0  0  0
   -2.0390    2.1955   -0.5014 H   0  0  0  0  0  0  0  0  0  0  0  0
   -0.9639    1.7206    0.8262 H   0  0  0  0  0  0  0  0  0  0  0  0
   -1.5789   -0.7895    0.1932 H   0  0  0  0  0  0  0  0  0  0  0  0
   -3.0550   -0.0812    2.0050 H   0  0  0  0  0  0  0  0  0  0  0  0
   -3.7370    1.2894    0.9767 H   0  0  0  0  0  0  0  0  0  0  0  0
   -3.2751    0.1595   -1.9881 H   0  0  0  0  0  0  0  0  0  0  0  0
  1  2  1  0
  2  3  2  0
  2  4  1  0
  4  5  1  0
  5  6  1  0
  6  7  1  0
  7  8  1  0
  8  9  1  0
  9 10  1  0
 10 11  1  0
 11 12  2  0
 11 13  1  0
 13  9  1  0
  1 14  1  0
  1 15  1  0
  4 16  1  0
  4 17  1  0
  5 18  1  0
  5 19  1  0
  6 20  1  0
  6 21  1  0
  7 22  1  0
  8 23  1  0
  8 24  1  0
  9 25  1  1
 10 26  1  0
 10 27  1  0
 13 28  1  0
M  END
$$$$

     RDKit          3D

 28 28  0  0  0  0  0  0  0  0999 V2000
    4.8088   -0.6628   -0.7237 N   0  0  0  0  0  0  0  0  0  0  0  0
    3.4569   -0.2491   -0.6442 C   0  0  0  0  0  0  0  0  0  0  0  0
    2.8968    0.0329   -1.7395 O   0  0  0  0  0  0  0  0  0  0  0  0
    2.8481   -0.1886    0.6784 C   0  0  0  0  0  0  0  0  0  0  0  0
    1.4243    0.2371    0.7468 C   0  0  0  0  0  0  0  0  0  0  0  0
    0.5023   -0.6550   -0.0030 C   0  0  0  0  0  0  0  0  0  0  0  0
   -0.8718   -0.2912    0.0339 N   0  0  0  0  0  0  0  0  0  0  0  0
   -1.2449    0.8926   -0.6396 C   0  0  0  0  0  0  0  0  0  0  0  0
   -2.7544    1.0745   -0.4491 C   0  0  1  0  0  0  0  0  0  0  0  0
   -3.5973   -0.0469   -0.9852 C   0  0  0  0  0  0  0  0  0  0  0  0
   -3.7629   -0.4805    0.4307 C   0  0  0  0  0  0  0  0  0  0  0  0
   -4.2240   -1.5317    0.9389 O   0  0  0  0  0  0  0  0  0  0  0  0
   -3.2075    0.7373    0.8869 N   0  0  0  0  0  0  0  0  0  0  0  0
    5.5354   -0.0033   -1.0460 H   0  0  0  0  0  0  0  0  0  0  0  0
    5.0789   -1.6243   -0.4606 H   0  0  0  0  0  0  0  0  0  0  0  0
    2.9137   -1.2046    1.1390 H   0  0  0  0  0  0  0  0  0  0  0  0
    3.4464    0.5252    1.2929 H   0  0  0  0  0  0  0  0  0  0  0  0
    1.3296    1.2652    0.3555 H   0  0  0  0  0  0  0  0  0  0  0  0
    1.1475    0.1949    1.8429 H   0  0  0  0  0  0  0  0  0  0  0  0
    0.5789   -1.6819    0.4396 H   0  0  0  0  0  0  0  0  0  0  0  0
    0.8255   -0.7668   -1.0531 H   0  0  0  0  0  0  0  0  0  0  0  0
   -1.4616   -1.0830   -0.2933 H   0  0  0  0  0  0  0  0  0  0  0  0
   -1.0695    0.8855   -1.7352 H   0  0  0  0  0  0  0  0  0  0  0  0
   -0.7888    1.8234   -0.2598 H   0  0  0  0  0  0  0  0  0  0  0  0
   -3.1176    2.0963   -0.7091 H   0  0  0  0  0  0  0  0  0  0  0  0
   -4.5590    0.2289   -1.4373 H   0  0  0  0  0  0  0  0  0  0  0  0
   -2.9819   -0.7236   -1.6035 H   0  0  0  0  0  0  0  0  0  0  0  0
   -3.1520    1.1992    1.8169 H   0  0  0  0  0  0  0  0  0  0  0  0
  1  2  1  0
  2  3  2  0
  2  4  1  0
  4  5  1  0
  5  6  1  0
  6  7  1  0
  7  8  1  0
  8  9  1  0
  9 10  1  0
 10 11  1  0
 11 12  2  0
 11 13  1  0
 13  9  1  0
  1 14  1  0
  1 15  1  0
  4 16  1  0
  4 17  1  0
  5 18  1  0
  5 19  1  0
  6 20  1  0
  6 21  1  0
  7 22  1  0
  8 23  1  0
  8 24  1  0
  9 25  1  6
 10 26  1  0
 10 27  1  0
 13 28  1  0
M  END
$$$$

     RDKit          3D

 28 28  0  0  0  0  0  0  0  0999 V2000
    4.7025    0.5291   -1.4045 N   0  0  0  0  0  0  0  0  0  0  0  0
    3.5125    0.4333   -0.5887 C   0  0  0  0  0  0  0  0  0  0  0  0
    3.0280    1.4666   -0.0944 O   0  0  0  0  0  0  0  0  0  0  0  0
    2.9469   -0.8981   -0.3930 C   0  0  0  0  0  0  0  0  0  0  0  0
    1.6244   -0.8677    0.2932 C   0  0  0  0  0  0  0  0  0  0  0  0
    0.6082   -0.1187   -0.5179 C   0  0  0  0  0  0  0  0  0  0  0  0
   -0.6777   -0.1067    0.1771 N   0  0  0  0  0  0  0  0  0  0  0  0
   -1.6294    0.6297   -0.6467 C   0  0  0  0  0  0  0  0  0  0  0  0
   -2.9689    0.6606    0.0421 C   0  0  1  0  0  0  0  0  0  0  0  0
   -3.5789   -0.7012    0.3045 C   0  0  0  0  0  0  0  0  0  0  0  0
   -4.0431   -0.0550    1.5400 C   0  0  0  0  0  0  0  0  0  0  0  0
   -4.9984   -0.1271    2.3187 O   0  0  0  0  0  0  0  0  0  0  0  0
   -2.8865    0.7503    1.5004 N   0  0  0  0  0  0  0  0  0  0  0  0
    5.4942    1.1378   -1.1514 H   0  0  0  0  0  0  0  0  0  0  0  0
    4.7256   -0.0420   -2.2571 H   0  0  0  0  0  0  0  0  0  0  0  0
    2.8415   -1.3741   -1.4074 H   0  0  0  0  0  0  0  0  0  0  0  0
    3.6395   -1.5381    0.1995 H   0  0  0  0  0  0  0  0  0  0  0  0
    1.7314   -0.4097    1.3041 H   0  0  0  0  0  0  0  0  0  0  0  0
    1.2483   -1.8989    0.4928 H   0  0  0  0  0  0  0  0  0  0  0  0
    0.9411    0.8846   -0.7441 H   0  0  0  0  0  0  0  0  0  0  0  0
    0.4862   -0.6953   -1.4785 H   0  0  0  0  0  0  0  0  0  0  0  0
   -0.5478    0.4139    1.0777 H   0  0  0  0  0  0  0  0  0  0  0  0
   -1.7323    0.1373   -1.6335 H   0  0  0  0  0  0  0  0  0  0  0  0
   -1.3010    1.6844   -0.7590 H   0  0  0  0  0  0  0  0  0  0  0  0
   -3.6877    1.3976   -0.3247 H   0  0  0  0  0  0  0  0  0  0  0  0
   -4.3644   -0.9935   -0.4176 H   0  0  0  0  0  0  0  0  0  0  0  0
   -2.8162   -1.4755    0.5146 H   0  0  0  0  0  0  0  0  0  0  0  0
   -2.2981    1.1766    2.2313 H   0  0  0  0  0  0  0  0  0  0  0  0
  1  2  1  0
  2  3  2  0
  2  4  1  0
  4  5  1  0
  5  6  1  0
  6  7  1  0
  7  8  1  0
  8  9  1  0
  9 10  1  0
 10 11  1  0
 11 12  2  0
 11 13  1  0
 13  9  1  0
  1 14  1  0
  1 15  1  0
  4 16  1  0
  4 17  1  0
  5 18  1  0
  5 19  1  0
  6 20  1  0
  6 21  1  0
  7 22  1  0
  8 23  1  0
  8 24  1  0
  9 25  1  6
 10 26  1  0
 10 27  1  0
 13 28  1  0
M  END
$$$$

     RDKit          3D

 28 28  0  0  0  0  0  0  0  0999 V2000
   -4.6427    1.3614    0.0086 N   0  0  0  0  0  0  0  0  0  0  0  0
   -3.3872    0.7505    0.1320 C   0  0  0  0  0  0  0  0  0  0  0  0
   -2.9813    0.0860   -0.8736 O   0  0  0  0  0  0  0  0  0  0  0  0
   -2.5219    0.8149    1.3066 C   0  0  0  0  0  0  0  0  0  0  0  0
   -1.1835    0.1829    1.1777 C   0  0  0  0  0  0  0  0  0  0  0  0
   -0.3511    0.8018    0.1106 C   0  0  0  0  0  0  0  0  0  0  0  0
    0.9507    0.1999   -0.0323 N   0  0  0  0  0  0  0  0  0  0  0  0
    0.9400   -1.1301   -0.5285 C   0  0  0  0  0  0  0  0  0  0  0  0
    2.3702   -1.6180   -0.6233 C   0  0  1  0  0  0  0  0  0  0  0  0
    3.2092   -0.7637   -1.5567 C   0  0  0  0  0  0  0  0  0  0  0  0
    3.8380   -0.2496   -0.2980 C   0  0  0  0  0  0  0  0  0  0  0  0
    4.6180    0.7024   -0.0888 O   0  0  0  0  0  0  0  0  0  0  0  0
    3.2087   -1.2393    0.4877 N   0  0  0  0  0  0  0  0  0  0  0  0
   -5.1217    1.7532    0.8503 H   0  0  0  0  0  0  0  0  0  0  0  0
   -5.1520    1.4573   -0.8968 H   0  0  0  0  0  0  0  0  0  0  0  0
   -3.1022    0.3879    2.1713 H   0  0  0  0  0  0  0  0  0  0  0  0
   -2.3845    1.8971    1.6039 H   0  0  0  0  0  0  0  0  0  0  0  0
   -1.3157   -0.9064    0.9283 H   0  0  0  0  0  0  0  0  0  0  0  0
   -0.6800    0.2662    2.1640 H   0  0  0  0  0  0  0  0  0  0  0  0
   -0.1369    1.8598    0.4611 H   0  0  0  0  0  0  0  0  0  0  0  0
   -0.8561    0.9524   -0.8593 H   0  0  0  0  0  0  0  0  0  0  0  0
    1.5117    0.8146   -0.6245 H   0  0  0  0  0  0  0  0  0  0  0  0
    0.4571   -1.2115   -1.5334 H   0  0  0  0  0  0  0  0  0  0  0  0
    0.4160   -1.8577    0.1209 H   0  0  0  0  0  0  0  0  0  0  0  0
    2.4677   -2.7115   -0.8045 H   0  0  0  0  0  0  0  0  0  0  0  0
    2.6564    0.0089   -2.0842 H   0  0  0  0  0  0  0  0  0  0  0  0
    3.8720   -1.4024   -2.1757 H   0  0  0  0  0  0  0  0  0  0  0  0
    3.3012   -1.5663    1.4565 H   0  0  0  0  0  0  0  0  0  0  0  0
  1  2  1  0
  2  3  2  0
  2  4  1  0
  4  5  1  0
  5  6  1  0
  6  7  1  0
  7  8  1  0
  8  9  1  0
  9 10  1  0
 10 11  1  0
 11 12  2  0
 11 13  1  0
 13  9  1  0
  1 14  1  0
  1 15  1  0
  4 16  1  0
  4 17  1  0
  5 18  1  0
  5 19  1  0
  6 20  1  0
  6 21  1  0
  7 22  1  0
  8 23  1  0
  8 24  1  0
  9 25  1  6
 10 26  1  0
 10 27  1  0
 13 28  1  0
M  END
$$$$
