
     RDKit          3D

 29 30  0  0  0  0  0  0  0  0999 V2000
   -4.8400    0.1101   -1.0324 O   0  0  0  0  0  0  0  0  0  0  0  0
   -3.7380    0.0458   -0.4628 C   0  0  0  0  0  0  0  0  0  0  0  0
   -2.6686    1.0917   -0.5628 C   0  0  0  0  0  0  0  0  0  0  0  0
   -1.3441    0.3913   -0.8541 C   0  0  0  0  0  0  0  0  0  0  0  0
   -1.0678   -0.6930    0.1489 C   0  0  1  0  0  0  0  0  0  0  0  0
    0.1783   -0.4179    0.8036 N   0  0  0  0  0  0  0  0  0  0  0  0
    1.3275   -0.4473   -0.0744 C   0  0  0  0  0  0  0  0  0  0  0  0
    2.5246   -0.0904    0.7794 C   0  0  1  0  0  0  0  0  0  0  0  0
    3.8599   -0.0638    0.0844 C   0  0  0  0  0  0  0  0  0  0  0  0
    4.0991    1.1049    0.9523 C   0  0  0  0  0  0  0  0  0  0  0  0
    5.0624    1.6629    1.4940 O   0  0  0  0  0  0  0  0  0  0  0  0
    2.7122    1.3579    0.9216 N   0  0  0  0  0  0  0  0  0  0  0  0
   -2.1898   -0.9025    1.1428 C   0  0  0  0  0  0  0  0  0  0  0  0
   -3.3959   -1.0693    0.3595 N   0  0  0  0  0  0  0  0  0  0  0  0
   -2.5829    1.6285    0.4192 H   0  0  0  0  0  0  0  0  0  0  0  0
   -2.8625    1.7887   -1.3861 H   0  0  0  0  0  0  0  0  0  0  0  0
   -1.3491   -0.0283   -1.8774 H   0  0  0  0  0  0  0  0  0  0  0  0
   -0.5728    1.2083   -0.8443 H   0  0  0  0  0  0  0  0  0  0  0  0
   -0.9346   -1.6812   -0.3755 H   0  0  0  0  0  0  0  0  0  0  0  0
    0.3169   -0.9202    1.7003 H   0  0  0  0  0  0  0  0  0  0  0  0
    1.1882    0.2695   -0.9005 H   0  0  0  0  0  0  0  0  0  0  0  0
    1.5082   -1.4449   -0.5053 H   0  0  0  0  0  0  0  0  0  0  0  0
    2.5575   -0.5583    1.7704 H   0  0  0  0  0  0  0  0  0  0  0  0
    4.5088   -0.9479    0.2737 H   0  0  0  0  0  0  0  0  0  0  0  0
    3.7670    0.2156   -0.9893 H   0  0  0  0  0  0  0  0  0  0  0  0
    2.1533    2.2285    0.9784 H   0  0  0  0  0  0  0  0  0  0  0  0
   -2.2830   -0.0441    1.8378 H   0  0  0  0  0  0  0  0  0  0  0  0
   -1.9823   -1.8516    1.6779 H   0  0  0  0  0  0  0  0  0  0  0  0
   -3.9525   -1.9432    0.4074 H   0  0  0  0  0  0  0  0  0  0  0  0
  1  2  2  0
  2  3  1  0
  3  4  1  0
  4  5  1  0
  5  6  1  0
  6  7  1  0
  7  8  1  0
  8  9  1  0
  9 10  1  0
 10 11  2  0
 10 12  1  0
  5 13  1  0
 13 14  1  0
 14  2  1  0
 12  8  1  0
  3 15  1  0
  3 16  1  0
  4 17  1  0
  4 18  1  0
  5 19  1  6
  6 20  1  0
  7 21  1  0
  7 22  1  0
  8 23  1  1
  9 24  1  0
  9 25  1  0
 12 26  1  0
 13 27  1  0
 13 28  1  0
 14 29  1  0
M  END
$$$$

     RDKit          3D

 29 30  0  0  0  0  0  0  0  0999 V2000
    3.5240    2.4170   -0.6169 O   0  0  0  0  0  0  0  0  0  0  0  0
    3.0585    1.2611   -0.3527 C   0  0  0  0  0  0  0  0  0  0  0  0
    2.5785    0.4007   -1.4453 C   0  0  0  0  0  0  0  0  0  0  0  0
    1.4666   -0.5363   -1.0516 C   0  0  0  0  0  0  0  0  0  0  0  0
    0.9354   -0.1674    0.2879 C   0  0  1  0  0  0  0  0  0  0  0  0
   -0.0811   -1.0664    0.7785 N   0  0  0  0  0  0  0  0  0  0  0  0
   -1.2610   -1.1252    0.0037 C   0  0  0  0  0  0  0  0  0  0  0  0
   -2.0960    0.1341    0.0346 C   0  0  1  0  0  0  0  0  0  0  0  0
   -3.3482    0.0223   -0.8034 C   0  0  0  0  0  0  0  0  0  0  0  0
   -4.0115    0.6705    0.3380 C   0  0  0  0  0  0  0  0  0  0  0  0
   -5.0399    1.3501    0.5286 O   0  0  0  0  0  0  0  0  0  0  0  0
   -2.9814    0.2019    1.1797 N   0  0  0  0  0  0  0  0  0  0  0  0
    2.1010   -0.2936    1.2824 C   0  0  0  0  0  0  0  0  0  0  0  0
    2.9926    0.7872    0.9734 N   0  0  0  0  0  0  0  0  0  0  0  0
    2.2871    1.0715   -2.3079 H   0  0  0  0  0  0  0  0  0  0  0  0
    3.4756   -0.1615   -1.8286 H   0  0  0  0  0  0  0  0  0  0  0  0
    0.7132   -0.5260   -1.8602 H   0  0  0  0  0  0  0  0  0  0  0  0
    1.8796   -1.5825   -1.0262 H   0  0  0  0  0  0  0  0  0  0  0  0
    0.6085    0.8898    0.2617 H   0  0  0  0  0  0  0  0  0  0  0  0
   -0.2780   -0.7938    1.7603 H   0  0  0  0  0  0  0  0  0  0  0  0
   -1.8980   -1.9430    0.3873 H   0  0  0  0  0  0  0  0  0  0  0  0
   -1.0497   -1.3471   -1.0580 H   0  0  0  0  0  0  0  0  0  0  0  0
   -1.5322    1.0833   -0.1271 H   0  0  0  0  0  0  0  0  0  0  0  0
   -3.6212   -1.0462   -0.9450 H   0  0  0  0  0  0  0  0  0  0  0  0
   -3.3358    0.6106   -1.7427 H   0  0  0  0  0  0  0  0  0  0  0  0
   -2.9468    0.0087    2.2052 H   0  0  0  0  0  0  0  0  0  0  0  0
    1.7132   -0.2527    2.3226 H   0  0  0  0  0  0  0  0  0  0  0  0
    2.5663   -1.2860    1.1197 H   0  0  0  0  0  0  0  0  0  0  0  0
    3.5809    1.2189    1.7020 H   0  0  0  0  0  0  0  0  0  0  0  0
  1  2  2  0
  2  3  1  0
  3  4  1  0
  4  5  1  0
  5  6  1  0
  6  7  1  0
  7  8  1  0
  8  9  1  0
  9 10  1  0
 10 11  2  0
 10 12  1  0
  5 13  1  0
 13 14  1  0
 14  2  1  0
 12  8  1  0
  3 15  1  0
  3 16  1  0
  4 17  1  0
  4 18  1  0
  5 19  1  6
  6 20  1  0
  7 21  1  0
  7 22  1  0
  8 23  1  6
  9 24  1  0
  9 25  1  0
 12 26  1  0
 13 27  1  0
 13 28  1  0
 14 29  1  0
M  END
$$$$

     RDKit          3D

 29 30  0  0  0  0  0  0  0  0999 V2000
   -4.9977    0.4459   -0.2409 O   0  0  0  0  0  0  0  0  0  0  0  0
   -3.8102    0.2910    0.1303 C   0  0  0  0  0  0  0  0  0  0  0  0
   -2.7581    1.3438   -0.0530 C   0  0  0  0  0  0  0  0  0  0  0  0
   -1.4881    0.7731   -0.6474 C   0  0  0  0  0  0  0  0  0  0  0  0
   -1.0790   -0.5249   -0.0540 C   0  0  1  0  0  0  0  0  0  0  0  0
    0.2605   -0.6051    0.4071 N   0  0  0  0  0  0  0  0  0  0  0  0
    1.3243   -0.4621   -0.5141 C   0  0  0  0  0  0  0  0  0  0  0  0
    2.6040   -0.4711    0.3425 C   0  0  1  0  0  0  0  0  0  0  0  0
    3.8830   -0.3320   -0.4098 C   0  0  0  0  0  0  0  0  0  0  0  0
    3.8992    1.1165   -0.0155 C   0  0  0  0  0  0  0  0  0  0  0  0
    4.5790    2.0860   -0.3965 O   0  0  0  0  0  0  0  0  0  0  0  0
    2.8595    0.8580    0.9114 N   0  0  0  0  0  0  0  0  0  0  0  0
   -1.9404   -0.8667    1.1614 C   0  0  0  0  0  0  0  0  0  0  0  0
   -3.3319   -0.8938    0.7626 N   0  0  0  0  0  0  0  0  0  0  0  0
   -2.4876    1.6816    0.9795 H   0  0  0  0  0  0  0  0  0  0  0  0
   -3.1379    2.2095   -0.5985 H   0  0  0  0  0  0  0  0  0  0  0  0
   -1.6857    0.6465   -1.7425 H   0  0  0  0  0  0  0  0  0  0  0  0
   -0.7234    1.5779   -0.5370 H   0  0  0  0  0  0  0  0  0  0  0  0
   -1.2521   -1.3327   -0.7910 H   0  0  0  0  0  0  0  0  0  0  0  0
    0.3797   -1.5319    0.9033 H   0  0  0  0  0  0  0  0  0  0  0  0
    1.3875   -1.4079   -1.1033 H   0  0  0  0  0  0  0  0  0  0  0  0
    1.3388    0.3676   -1.1949 H   0  0  0  0  0  0  0  0  0  0  0  0
    2.6370   -1.3033    1.0808 H   0  0  0  0  0  0  0  0  0  0  0  0
    3.7886   -0.4415   -1.4975 H   0  0  0  0  0  0  0  0  0  0  0  0
    4.7608   -0.8600    0.0240 H   0  0  0  0  0  0  0  0  0  0  0  0
    2.4071    1.3634    1.6978 H   0  0  0  0  0  0  0  0  0  0  0  0
   -1.7981   -0.1506    1.9718 H   0  0  0  0  0  0  0  0  0  0  0  0
   -1.6502   -1.8722    1.5431 H   0  0  0  0  0  0  0  0  0  0  0  0
   -3.9687   -1.7052    0.9133 H   0  0  0  0  0  0  0  0  0  0  0  0
  1  2  2  0
  2  3  1  0
  3  4  1  0
  4  5  1  0
  5  6  1  0
  6  7  1  0
  7  8  1  0
  8  9  1  0
  9 10  1  0
 10 11  2  0
 10 12  1  0
  5 13  1  0
 13 14  1  0
 14  2  1  0
 12  8  1  0
  3 15  1  0
  3 16  1  0
  4 17  1  0
  4 18  1  0
  5 19  1  6
  6 20  1  0
  7 21  1  0
  7 22  1  0
  8 23  1  1
  9 24  1  0
  9 25  1  0
 12 26  1  0
 13 27  1  0
 13 28  1  0
 14 29  1  0
M  END
$$$$

     RDKit          3D

 29 30  0  0  0  0  0  0  0  0999 V2000
   -4.8318    0.5461   -0.0064 O   0  0  0  0  0  0  0  0  0  0  0  0
   -3.6061    0.2960    0.0270 C   0  0  0  0  0  0  0  0  0  0  0  0
   -3.1349   -0.7744   -0.8855 C   0  0  0  0  0  0  0  0  0  0  0  0
   -1.6333   -0.9475   -0.8195 C   0  0  0  0  0  0  0  0  0  0  0  0
   -1.1006   -0.6441    0.5668 C   0  0  1  0  0  0  0  0  0  0  0  0
    0.2907   -0.9070    0.6501 N   0  0  0  0  0  0  0  0  0  0  0  0
    1.1132   -0.0948   -0.1727 C   0  0  0  0  0  0  0  0  0  0  0  0
    2.5835   -0.4255   -0.0256 C   0  0  1  0  0  0  0  0  0  0  0  0
    3.3718    0.5146   -0.9487 C   0  0  0  0  0  0  0  0  0  0  0  0
    4.1321    0.9850    0.2305 C   0  0  0  0  0  0  0  0  0  0  0  0
    5.1541    1.7047    0.3729 O   0  0  0  0  0  0  0  0  0  0  0  0
    3.2179    0.2846    1.0599 N   0  0  0  0  0  0  0  0  0  0  0  0
   -1.3740    0.8209    0.8846 C   0  0  0  0  0  0  0  0  0  0  0  0
   -2.8040    1.0360    0.9077 N   0  0  0  0  0  0  0  0  0  0  0  0
   -3.4251   -0.4765   -1.9143 H   0  0  0  0  0  0  0  0  0  0  0  0
   -3.6893   -1.6947   -0.6129 H   0  0  0  0  0  0  0  0  0  0  0  0
   -1.4030   -1.9955   -1.0530 H   0  0  0  0  0  0  0  0  0  0  0  0
   -1.1236   -0.2741   -1.5408 H   0  0  0  0  0  0  0  0  0  0  0  0
   -1.6671   -1.2334    1.3150 H   0  0  0  0  0  0  0  0  0  0  0  0
    0.5053   -1.8970    0.5127 H   0  0  0  0  0  0  0  0  0  0  0  0
    1.0525    1.0044    0.0911 H   0  0  0  0  0  0  0  0  0  0  0  0
    0.8649   -0.2160   -1.2442 H   0  0  0  0  0  0  0  0  0  0  0  0
    2.8591   -1.4908   -0.1565 H   0  0  0  0  0  0  0  0  0  0  0  0
    2.7715    1.3785   -1.3398 H   0  0  0  0  0  0  0  0  0  0  0  0
    3.9724    0.0176   -1.7044 H   0  0  0  0  0  0  0  0  0  0  0  0
    3.0329    0.2582    2.1048 H   0  0  0  0  0  0  0  0  0  0  0  0
   -0.9843    1.4061    0.0310 H   0  0  0  0  0  0  0  0  0  0  0  0
   -0.9704    1.0813    1.8630 H   0  0  0  0  0  0  0  0  0  0  0  0
   -3.1743    1.7375    1.5889 H   0  0  0  0  0  0  0  0  0  0  0  0
  1  2  2  0
  2  3  1  0
  3  4  1  0
  4  5  1  0
  5  6  1  0
  6  7  1  0
  7  8  1  0
  8  9  1  0
  9 10  1  0
 10 11  2  0
 10 12  1  0
  5 13  1  0
 13 14  1  0
 14  2  1  0
 12  8  1  0
  3 15  1  0
  3 16  1  0
  4 17  1  0
  4 18  1  0
  5 19  1  1
  6 20  1  0
  7 21  1  0
  7 22  1  0
  8 23  1  6
  9 24  1  0
  9 25  1  0
 12 26  1  0
 13 27  1  0
 13 28  1  0
 14 29  1  0
M  END
$$$$

     RDKit          3D

 29 30  0  0  0  0  0  0  0  0999 V2000
   -3.3434    0.2621   -2.0895 O   0  0  0  0  0  0  0  0  0  0  0  0
   -2.9078    0.0347   -0.9277 C   0  0  0  0  0  0  0  0  0  0  0  0
   -2.5542   -1.3480   -0.4916 C   0  0  0  0  0  0  0  0  0  0  0  0
   -1.4235   -1.3534    0.5209 C   0  0  0  0  0  0  0  0  0  0  0  0
   -0.8382    0.0262    0.6995 C   0  0  1  0  0  0  0  0  0  0  0  0
   -0.1462    0.4494   -0.4445 N   0  0  0  0  0  0  0  0  0  0  0  0
    1.0278   -0.2533   -0.8484 C   0  0  0  0  0  0  0  0  0  0  0  0
    2.1014    0.0592    0.1626 C   0  0  1  0  0  0  0  0  0  0  0  0
    3.4490   -0.5506   -0.0218 C   0  0  0  0  0  0  0  0  0  0  0  0
    3.9312    0.7881    0.3759 C   0  0  0  0  0  0  0  0  0  0  0  0
    4.9097    1.2804    0.9509 O   0  0  0  0  0  0  0  0  0  0  0  0
    2.7683    1.3353   -0.1915 N   0  0  0  0  0  0  0  0  0  0  0  0
   -1.9281    1.0052    1.0995 C   0  0  0  0  0  0  0  0  0  0  0  0
   -2.7814    1.1758   -0.0770 N   0  0  0  0  0  0  0  0  0  0  0  0
   -3.4647   -1.7703   -0.0462 H   0  0  0  0  0  0  0  0  0  0  0  0
   -2.2217   -1.8956   -1.3957 H   0  0  0  0  0  0  0  0  0  0  0  0
   -1.7980   -1.6754    1.5360 H   0  0  0  0  0  0  0  0  0  0  0  0
   -0.6178   -2.0398    0.2478 H   0  0  0  0  0  0  0  0  0  0  0  0
   -0.1540   -0.0286    1.5692 H   0  0  0  0  0  0  0  0  0  0  0  0
   -0.6012    1.0516   -1.1220 H   0  0  0  0  0  0  0  0  0  0  0  0
    1.3721    0.0518   -1.8680 H   0  0  0  0  0  0  0  0  0  0  0  0
    0.8811   -1.3333   -0.8668 H   0  0  0  0  0  0  0  0  0  0  0  0
    1.7832    0.0663    1.1972 H   0  0  0  0  0  0  0  0  0  0  0  0
    3.7360   -1.3823    0.6518 H   0  0  0  0  0  0  0  0  0  0  0  0
    3.7027   -0.7236   -1.1049 H   0  0  0  0  0  0  0  0  0  0  0  0
    2.4989    2.2375   -0.6472 H   0  0  0  0  0  0  0  0  0  0  0  0
   -1.5468    1.9366    1.5138 H   0  0  0  0  0  0  0  0  0  0  0  0
   -2.5757    0.5068    1.8736 H   0  0  0  0  0  0  0  0  0  0  0  0
   -3.2590    2.0875   -0.2557 H   0  0  0  0  0  0  0  0  0  0  0  0
  1  2  2  0
  2  3  1  0
  3  4  1  0
  4  5  1  0
  5  6  1  0
  6  7  1  0
  7  8  1  0
  8  9  1  0
  9 10  1  0
 10 11  2  0
 10 12  1  0
  5 13  1  0
 13 14  1  0
 14  2  1  0
 12  8  1  0
  3 15  1  0
  3 16  1  0
  4 17  1  0
  4 18  1  0
  5 19  1  1
  6 20  1  0
  7 21  1  0
  7 22  1  0
  8 23  1  1
  9 24  1  0
  9 25  1  0
 12 26  1  0
 13 27  1  0
 13 28  1  0
 14 29  1  0
M  END
$$$$

     RDKit          3D

 29 30  0  0  0  0  0  0  0  0999 V2000
   -4.9836    0.0791   -0.3337 O   0  0  0  0  0  0  0  0  0  0  0  0
   -3.7431   -0.0090   -0.1859 C   0  0  0  0  0  0  0  0  0  0  0  0
   -3.2600   -0.5640    1.0864 C   0  0  0  0  0  0  0  0  0  0  0  0
   -1.7812   -0.4685    1.3097 C   0  0  0  0  0  0  0  0  0  0  0  0
   -1.0728    0.3945    0.3000 C   0  0  1  0  0  0  0  0  0  0  0  0
    0.3294    0.4206    0.5765 N   0  0  0  0  0  0  0  0  0  0  0  0
    1.1809    0.3253   -0.5954 C   0  0  0  0  0  0  0  0  0  0  0  0
    2.6156    0.6333   -0.2629 C   0  0  1  0  0  0  0  0  0  0  0  0
    3.3254   -0.2122    0.7484 C   0  0  0  0  0  0  0  0  0  0  0  0
    4.4641   -0.1085   -0.2024 C   0  0  0  0  0  0  0  0  0  0  0  0
    5.7235   -0.1142   -0.2154 O   0  0  0  0  0  0  0  0  0  0  0  0
    3.5056    0.0063   -1.2354 N   0  0  0  0  0  0  0  0  0  0  0  0
   -1.4736   -0.0405   -1.0706 C   0  0  0  0  0  0  0  0  0  0  0  0
   -2.8659    0.4082   -1.2141 N   0  0  0  0  0  0  0  0  0  0  0  0
   -3.6210   -1.6226    1.1654 H   0  0  0  0  0  0  0  0  0  0  0  0
   -3.8190   -0.0127    1.8965 H   0  0  0  0  0  0  0  0  0  0  0  0
   -1.6108   -0.0101    2.3095 H   0  0  0  0  0  0  0  0  0  0  0  0
   -1.3235   -1.4882    1.3535 H   0  0  0  0  0  0  0  0  0  0  0  0
   -1.4729    1.4479    0.4561 H   0  0  0  0  0  0  0  0  0  0  0  0
    0.5377   -0.4038    1.2234 H   0  0  0  0  0  0  0  0  0  0  0  0
    1.0447   -0.6752   -1.0398 H   0  0  0  0  0  0  0  0  0  0  0  0
    0.8708    1.1491   -1.2769 H   0  0  0  0  0  0  0  0  0  0  0  0
    2.8445    1.6952   -0.1573 H   0  0  0  0  0  0  0  0  0  0  0  0
    3.6020    0.4177    1.6633 H   0  0  0  0  0  0  0  0  0  0  0  0
    2.9870   -1.1974    0.9755 H   0  0  0  0  0  0  0  0  0  0  0  0
    3.5189   -0.2793   -2.2219 H   0  0  0  0  0  0  0  0  0  0  0  0
   -0.9096    0.3947   -1.8863 H   0  0  0  0  0  0  0  0  0  0  0  0
   -1.4476   -1.1480   -1.1590 H   0  0  0  0  0  0  0  0  0  0  0  0
   -3.1654    0.9824   -2.0072 H   0  0  0  0  0  0  0  0  0  0  0  0
  1  2  2  0
  2  3  1  0
  3  4  1  0
  4  5  1  0
  5  6  1  0
  6  7  1  0
  7  8  1  0
  8  9  1  0
  9 10  1  0
 10 11  2  0
 10 12  1  0
  5 13  1  0
 13 14  1  0
 14  2  1  0
 12  8  1  0
  3 15  1  0
  3 16  1  0
  4 17  1  0
  4 18  1  0
  5 19  1  1
  6 20  1  0
  7 21  1  0
  7 22  1  0
  8 23  1  1
  9 24  1  0
  9 25  1  0
 12 26  1  0
 13 27  1  0
 13 28  1  0
 14 29  1  0
M  END
$$$$

     RDKit          3D

 29 30  0  0  0  0  0  0  0  0999 V2000
   -4.3873    1.4640    1.1059 O   0  0  0  0  0  0  0  0  0  0  0  0
   -3.5639    0.6240    0.6865 C   0  0  0  0  0  0  0  0  0  0  0  0
   -3.4921    0.1085   -0.7041 C   0  0  0  0  0  0  0  0  0  0  0  0
   -2.0408    0.3747   -1.1291 C   0  0  0  0  0  0  0  0  0  0  0  0
   -1.0678   -0.4363   -0.3103 C   0  0  1  0  0  0  0  0  0  0  0  0
    0.2592    0.0861   -0.5875 N   0  0  0  0  0  0  0  0  0  0  0  0
    1.3023   -0.7018    0.0277 C   0  0  0  0  0  0  0  0  0  0  0  0
    2.6654   -0.3213   -0.4303 C   0  0  1  0  0  0  0  0  0  0  0  0
    3.0974    1.0913   -0.1695 C   0  0  0  0  0  0  0  0  0  0  0  0
    4.4170    0.4450    0.1081 C   0  0  0  0  0  0  0  0  0  0  0  0
    5.6239    0.6802    0.0125 O   0  0  0  0  0  0  0  0  0  0  0  0
    3.6748   -0.6798    0.5770 N   0  0  0  0  0  0  0  0  0  0  0  0
   -1.4046   -0.6061    1.1206 C   0  0  0  0  0  0  0  0  0  0  0  0
   -2.5921    0.0875    1.5743 N   0  0  0  0  0  0  0  0  0  0  0  0
   -3.6737   -0.9820   -0.6875 H   0  0  0  0  0  0  0  0  0  0  0  0
   -4.1531    0.6359   -1.3870 H   0  0  0  0  0  0  0  0  0  0  0  0
   -1.8790    1.4665   -1.0552 H   0  0  0  0  0  0  0  0  0  0  0  0
   -1.9842    0.0413   -2.1981 H   0  0  0  0  0  0  0  0  0  0  0  0
   -1.0598   -1.4572   -0.8213 H   0  0  0  0  0  0  0  0  0  0  0  0
    0.2952    1.0777   -0.2409 H   0  0  0  0  0  0  0  0  0  0  0  0
    1.1008   -1.7576   -0.2192 H   0  0  0  0  0  0  0  0  0  0  0  0
    1.2959   -0.5440    1.1468 H   0  0  0  0  0  0  0  0  0  0  0  0
    2.9557   -0.6859   -1.4437 H   0  0  0  0  0  0  0  0  0  0  0  0
    3.0725    1.7247   -1.0641 H   0  0  0  0  0  0  0  0  0  0  0  0
    2.6277    1.5245    0.7469 H   0  0  0  0  0  0  0  0  0  0  0  0
    3.8083   -1.4081    1.2998 H   0  0  0  0  0  0  0  0  0  0  0  0
   -0.5975   -0.3305    1.8377 H   0  0  0  0  0  0  0  0  0  0  0  0
   -1.5715   -1.7065    1.3356 H   0  0  0  0  0  0  0  0  0  0  0  0
   -2.7287    0.1852    2.6016 H   0  0  0  0  0  0  0  0  0  0  0  0
  1  2  2  0
  2  3  1  0
  3  4  1  0
  4  5  1  0
  5  6  1  0
  6  7  1  0
  7  8  1  0
  8  9  1  0
  9 10  1  0
 10 11  2  0
 10 12  1  0
  5 13  1  0
 13 14  1  0
 14  2  1  0
 12  8  1  0
  3 15  1  0
  3 16  1  0
  4 17  1  0
  4 18  1  0
  5 19  1  6
  6 20  1  0
  7 21  1  0
  7 22  1  0
  8 23  1  6
  9 24  1  0
  9 25  1  0
 12 26  1  0
 13 27  1  0
 13 28  1  0
 14 29  1  0
M  END
$$$$

     RDKit          3D

 29 30  0  0  0  0  0  0  0  0999 V2000
   -4.7824    0.5596    0.9542 O   0  0  0  0  0  0  0  0  0  0  0  0
   -3.6494    0.4465    0.4342 C   0  0  0  0  0  0  0  0  0  0  0  0
   -3.0306   -0.9020    0.4166 C   0  0  0  0  0  0  0  0  0  0  0  0
   -1.5529   -0.9020    0.2247 C   0  0  0  0  0  0  0  0  0  0  0  0
   -0.9156    0.4500    0.1185 C   0  0  1  0  0  0  0  0  0  0  0  0
    0.3663    0.2801   -0.5857 N   0  0  0  0  0  0  0  0  0  0  0  0
    1.2531   -0.5749    0.1833 C   0  0  0  0  0  0  0  0  0  0  0  0
    2.5360   -0.7375   -0.5672 C   0  0  1  0  0  0  0  0  0  0  0  0
    3.2699    0.5374   -0.8311 C   0  0  0  0  0  0  0  0  0  0  0  0
    3.9093    0.2669    0.4811 C   0  0  0  0  0  0  0  0  0  0  0  0
    4.4668    0.8840    1.4303 O   0  0  0  0  0  0  0  0  0  0  0  0
    3.6509   -1.1064    0.2902 N   0  0  0  0  0  0  0  0  0  0  0  0
   -1.7256    1.4144   -0.7147 C   0  0  0  0  0  0  0  0  0  0  0  0
   -3.0104    1.5841   -0.1075 N   0  0  0  0  0  0  0  0  0  0  0  0
   -3.4907   -1.4930   -0.4130 H   0  0  0  0  0  0  0  0  0  0  0  0
   -3.3271   -1.4148    1.3528 H   0  0  0  0  0  0  0  0  0  0  0  0
   -1.2342   -1.4958   -0.6759 H   0  0  0  0  0  0  0  0  0  0  0  0
   -1.0801   -1.4058    1.1175 H   0  0  0  0  0  0  0  0  0  0  0  0
   -0.7189    0.8945    1.0973 H   0  0  0  0  0  0  0  0  0  0  0  0
    0.2283   -0.0725   -1.5403 H   0  0  0  0  0  0  0  0  0  0  0  0
    1.4632   -0.0414    1.1409 H   0  0  0  0  0  0  0  0  0  0  0  0
    0.8201   -1.5710    0.3511 H   0  0  0  0  0  0  0  0  0  0  0  0
    2.4271   -1.3916   -1.4630 H   0  0  0  0  0  0  0  0  0  0  0  0
    3.9631    0.5002   -1.6986 H   0  0  0  0  0  0  0  0  0  0  0  0
    2.6440    1.4376   -0.8665 H   0  0  0  0  0  0  0  0  0  0  0  0
    4.0287   -2.0370    0.5852 H   0  0  0  0  0  0  0  0  0  0  0  0
   -1.8799    1.0364   -1.7466 H   0  0  0  0  0  0  0  0  0  0  0  0
   -1.1455    2.3509   -0.7962 H   0  0  0  0  0  0  0  0  0  0  0  0
   -3.4834    2.5031   -0.0522 H   0  0  0  0  0  0  0  0  0  0  0  0
  1  2  2  0
  2  3  1  0
  3  4  1  0
  4  5  1  0
  5  6  1  0
  6  7  1  0
  7  8  1  0
  8  9  1  0
  9 10  1  0
 10 11  2  0
 10 12  1  0
  5 13  1  0
 13 14  1  0
 14  2  1  0
 12  8  1  0
  3 15  1  0
  3 16  1  0
  4 17  1  0
  4 18  1  0
  5 19  1  1
  6 20  1  0
  7 21  1  0
  7 22  1  0
  8 23  1  6
  9 24  1  0
  9 25  1  0
 12 26  1  0
 13 27  1  0
 13 28  1  0
 14 29  1  0
M  END
$$$$
