
     RDKit          3D

 26 26  0  0  0  0  0  0  0  0999 V2000
   -1.9784   -1.7334   -0.6093 N   0  0  0  0  0  0  0  0  0  0  0  0
   -0.7188   -0.9958   -0.4411 C   0  0  0  0  0  0  0  0  0  0  0  0
   -0.9989    0.4333   -0.1549 C   0  0  0  0  0  0  0  0  0  0  0  0
    0.0946    1.4038    0.0404 C   0  0  0  0  0  0  0  0  0  0  0  0
    0.9914    1.3107    1.0075 O   0  0  0  0  0  0  0  0  0  0  0  0
    1.8494    0.2901    1.1862 C   0  0  0  0  0  0  0  0  0  0  0  0
    2.7515   -0.0272    0.0575 C   0  0  0  0  0  0  0  0  0  0  0  0
    3.6589   -1.0983    0.1814 N   0  0  0  0  0  0  0  0  0  0  0  0
    2.7110    0.6403   -0.9855 O   0  0  0  0  0  0  0  0  0  0  0  0
   -2.1260    1.0238   -1.0363 C   0  0  0  0  0  0  0  0  0  0  0  0
   -2.4503    1.8119    0.0917 O   0  0  0  0  0  0  0  0  0  0  0  0
   -2.1684    0.6413    0.8346 C   0  0  0  0  0  0  0  0  0  0  0  0
   -2.2861   -1.9990    0.3510 H   0  0  0  0  0  0  0  0  0  0  0  0
   -1.7207   -2.6061   -1.1567 H   0  0  0  0  0  0  0  0  0  0  0  0
   -0.1826   -1.4774    0.3691 H   0  0  0  0  0  0  0  0  0  0  0  0
   -0.2099   -1.0590   -1.4311 H   0  0  0  0  0  0  0  0  0  0  0  0
    0.5924    1.5214   -0.9862 H   0  0  0  0  0  0  0  0  0  0  0  0
   -0.4303    2.4251    0.1374 H   0  0  0  0  0  0  0  0  0  0  0  0
    1.4456   -0.6494    1.6357 H   0  0  0  0  0  0  0  0  0  0  0  0
    2.6035    0.5998    2.0234 H   0  0  0  0  0  0  0  0  0  0  0  0
    3.3866   -2.1062    0.0596 H   0  0  0  0  0  0  0  0  0  0  0  0
    4.6887   -0.9620    0.4082 H   0  0  0  0  0  0  0  0  0  0  0  0
   -2.9350    0.3160   -1.2163 H   0  0  0  0  0  0  0  0  0  0  0  0
   -1.7557    1.5806   -1.8942 H   0  0  0  0  0  0  0  0  0  0  0  0
   -1.8601    0.8077    1.8641 H   0  0  0  0  0  0  0  0  0  0  0  0
   -2.9524   -0.0919    0.6270 H   0  0  0  0  0  0  0  0  0  0  0  0
  1  2  1  0
  2  3  1  0
  3  4  1  0
  4  5  1  0
  5  6  1  0
  6  7  1  0
  7  8  1  0
  7  9  2  0
  3 10  1  0
 10 11  1  0
 11 12  1  0
 12  3  1  0
  1 13  1  0
  1 14  1  0
  2 15  1  0
  2 16  1  0
  4 17  1  0
  4 18  1  0
  6 19  1  0
  6 20  1  0
  8 21  1  0
  8 22  1  0
 10 23  1  0
 10 24  1  0
 12 25  1  0
 12 26  1  0
M  END
$$$$

     RDKit          3D

 26 26  0  0  0  0  0  0  0  0999 V2000
   -3.0865   -1.2798    0.1267 N   0  0  0  0  0  0  0  0  0  0  0  0
   -1.6664   -1.1477    0.1274 C   0  0  0  0  0  0  0  0  0  0  0  0
   -1.2174    0.2515   -0.1586 C   0  0  0  0  0  0  0  0  0  0  0  0
    0.2863    0.3926   -0.1581 C   0  0  0  0  0  0  0  0  0  0  0  0
    0.8593    0.0559    1.0356 O   0  0  0  0  0  0  0  0  0  0  0  0
    2.2112    0.1758    1.0660 C   0  0  0  0  0  0  0  0  0  0  0  0
    2.9803   -0.6358    0.1303 C   0  0  0  0  0  0  0  0  0  0  0  0
    4.4145   -0.4758    0.1787 N   0  0  0  0  0  0  0  0  0  0  0  0
    2.5634   -1.4517   -0.7081 O   0  0  0  0  0  0  0  0  0  0  0  0
   -1.9749    1.3180    0.5725 C   0  0  0  0  0  0  0  0  0  0  0  0
   -2.9320    1.2771   -0.4408 O   0  0  0  0  0  0  0  0  0  0  0  0
   -1.8755    0.9416   -1.3189 C   0  0  0  0  0  0  0  0  0  0  0  0
   -3.4980   -0.8460    0.9847 H   0  0  0  0  0  0  0  0  0  0  0  0
   -3.3183   -2.2949    0.1646 H   0  0  0  0  0  0  0  0  0  0  0  0
   -1.2490   -1.8579   -0.6071 H   0  0  0  0  0  0  0  0  0  0  0  0
   -1.3034   -1.4018    1.1594 H   0  0  0  0  0  0  0  0  0  0  0  0
    0.6504   -0.1887   -1.0268 H   0  0  0  0  0  0  0  0  0  0  0  0
    0.5305    1.4771   -0.3481 H   0  0  0  0  0  0  0  0  0  0  0  0
    2.5736    1.2338    0.9675 H   0  0  0  0  0  0  0  0  0  0  0  0
    2.5468   -0.1186    2.1028 H   0  0  0  0  0  0  0  0  0  0  0  0
    4.8380   -0.0389   -0.6674 H   0  0  0  0  0  0  0  0  0  0  0  0
    4.9757   -0.7782    1.0032 H   0  0  0  0  0  0  0  0  0  0  0  0
   -2.3925    0.9188    1.5153 H   0  0  0  0  0  0  0  0  0  0  0  0
   -1.4280    2.2755    0.6608 H   0  0  0  0  0  0  0  0  0  0  0  0
   -1.3260    1.8819   -1.5530 H   0  0  0  0  0  0  0  0  0  0  0  0
   -2.1620    0.3162   -2.1682 H   0  0  0  0  0  0  0  0  0  0  0  0
  1  2  1  0
  2  3  1  0
  3  4  1  0
  4  5  1  0
  5  6  1  0
  6  7  1  0
  7  8  1  0
  7  9  2  0
  3 10  1  0
 10 11  1  0
 11 12  1  0
 12  3  1  0
  1 13  1  0
  1 14  1  0
  2 15  1  0
  2 16  1  0
  4 17  1  0
  4 18  1  0
  6 19  1  0
  6 20  1  0
  8 21  1  0
  8 22  1  0
 10 23  1  0
 10 24  1  0
 12 25  1  0
 12 26  1  0
M  END
$$$$

     RDKit          3D

 26 26  0  0  0  0  0  0  0  0999 V2000
   -2.2888   -1.5981   -0.7278 N   0  0  0  0  0  0  0  0  0  0  0  0
   -2.1890   -0.7417    0.4637 C   0  0  0  0  0  0  0  0  0  0  0  0
   -1.3429    0.4431    0.0517 C   0  0  0  0  0  0  0  0  0  0  0  0
    0.0541    0.0617   -0.4132 C   0  0  0  0  0  0  0  0  0  0  0  0
    0.6827   -0.5750    0.6250 O   0  0  0  0  0  0  0  0  0  0  0  0
    1.9513   -0.9782    0.3203 C   0  0  0  0  0  0  0  0  0  0  0  0
    2.9034    0.1090    0.0173 C   0  0  0  0  0  0  0  0  0  0  0  0
    4.2397   -0.2751   -0.3713 N   0  0  0  0  0  0  0  0  0  0  0  0
    2.6837    1.3264    0.0591 O   0  0  0  0  0  0  0  0  0  0  0  0
   -1.3015    1.5957    0.9923 C   0  0  0  0  0  0  0  0  0  0  0  0
   -2.0512    2.3294    0.0429 O   0  0  0  0  0  0  0  0  0  0  0  0
   -2.0960    1.3054   -0.9151 C   0  0  0  0  0  0  0  0  0  0  0  0
   -1.9453   -1.1380   -1.5754 H   0  0  0  0  0  0  0  0  0  0  0  0
   -1.8959   -2.5229   -0.5136 H   0  0  0  0  0  0  0  0  0  0  0  0
   -1.7823   -1.3021    1.3086 H   0  0  0  0  0  0  0  0  0  0  0  0
   -3.2221   -0.4335    0.7195 H   0  0  0  0  0  0  0  0  0  0  0  0
   -0.0036   -0.5594   -1.3367 H   0  0  0  0  0  0  0  0  0  0  0  0
    0.6075    0.9700   -0.6932 H   0  0  0  0  0  0  0  0  0  0  0  0
    2.3716   -1.6816    1.0963 H   0  0  0  0  0  0  0  0  0  0  0  0
    1.8806   -1.5948   -0.6310 H   0  0  0  0  0  0  0  0  0  0  0  0
    4.5091   -0.4858   -1.3520 H   0  0  0  0  0  0  0  0  0  0  0  0
    4.9592   -0.3413    0.3712 H   0  0  0  0  0  0  0  0  0  0  0  0
   -0.2920    2.0754    1.1215 H   0  0  0  0  0  0  0  0  0  0  0  0
   -1.8060    1.4527    1.9547 H   0  0  0  0  0  0  0  0  0  0  0  0
   -1.4804    1.5241   -1.8216 H   0  0  0  0  0  0  0  0  0  0  0  0
   -3.1459    1.0345   -1.1111 H   0  0  0  0  0  0  0  0  0  0  0  0
  1  2  1  0
  2  3  1  0
  3  4  1  0
  4  5  1  0
  5  6  1  0
  6  7  1  0
  7  8  1  0
  7  9  2  0
  3 10  1  0
 10 11  1  0
 11 12  1  0
 12  3  1  0
  1 13  1  0
  1 14  1  0
  2 15  1  0
  2 16  1  0
  4 17  1  0
  4 18  1  0
  6 19  1  0
  6 20  1  0
  8 21  1  0
  8 22  1  0
 10 23  1  0
 10 24  1  0
 12 25  1  0
 12 26  1  0
M  END
$$$$

     RDKit          3D

 26 26  0  0  0  0  0  0  0  0999 V2000
   -2.5641    0.2802    1.9002 N   0  0  0  0  0  0  0  0  0  0  0  0
   -1.3233   -0.2357    1.4301 C   0  0  0  0  0  0  0  0  0  0  0  0
   -1.1543   -0.1515   -0.0588 C   0  0  0  0  0  0  0  0  0  0  0  0
    0.1405   -0.6875   -0.5713 C   0  0  0  0  0  0  0  0  0  0  0  0
    1.2489   -0.0194   -0.0472 O   0  0  0  0  0  0  0  0  0  0  0  0
    2.4155   -0.5718   -0.5683 C   0  0  0  0  0  0  0  0  0  0  0  0
    3.6253    0.0945   -0.0500 C   0  0  0  0  0  0  0  0  0  0  0  0
    3.5260    1.1719    0.8748 N   0  0  0  0  0  0  0  0  0  0  0  0
    4.7622   -0.2888   -0.4256 O   0  0  0  0  0  0  0  0  0  0  0  0
   -1.6721    1.0946   -0.7141 C   0  0  0  0  0  0  0  0  0  0  0  0
   -2.0078    0.2965   -1.8146 O   0  0  0  0  0  0  0  0  0  0  0  0
   -2.3132   -0.7104   -0.8670 C   0  0  0  0  0  0  0  0  0  0  0  0
   -3.3923   -0.3038    1.7098 H   0  0  0  0  0  0  0  0  0  0  0  0
   -2.6957    1.2922    1.8228 H   0  0  0  0  0  0  0  0  0  0  0  0
   -1.2569   -1.3029    1.7183 H   0  0  0  0  0  0  0  0  0  0  0  0
   -0.5048    0.3610    1.8876 H   0  0  0  0  0  0  0  0  0  0  0  0
    0.2232   -1.7493   -0.1947 H   0  0  0  0  0  0  0  0  0  0  0  0
    0.1766   -0.7652   -1.6652 H   0  0  0  0  0  0  0  0  0  0  0  0
    2.3640   -0.4117   -1.6774 H   0  0  0  0  0  0  0  0  0  0  0  0
    2.4446   -1.6664   -0.4261 H   0  0  0  0  0  0  0  0  0  0  0  0
    2.7056    1.2873    1.5136 H   0  0  0  0  0  0  0  0  0  0  0  0
    4.2724    1.9078    0.9640 H   0  0  0  0  0  0  0  0  0  0  0  0
   -2.6185    1.4131   -0.2147 H   0  0  0  0  0  0  0  0  0  0  0  0
   -0.9443    1.8912   -0.9080 H   0  0  0  0  0  0  0  0  0  0  0  0
   -2.1721   -1.7367   -1.2438 H   0  0  0  0  0  0  0  0  0  0  0  0
   -3.2853   -0.4892   -0.3924 H   0  0  0  0  0  0  0  0  0  0  0  0
  1  2  1  0
  2  3  1  0
  3  4  1  0
  4  5  1  0
  5  6  1  0
  6  7  1  0
  7  8  1  0
  7  9  2  0
  3 10  1  0
 10 11  1  0
 11 12  1  0
 12  3  1  0
  1 13  1  0
  1 14  1  0
  2 15  1  0
  2 16  1  0
  4 17  1  0
  4 18  1  0
  6 19  1  0
  6 20  1  0
  8 21  1  0
  8 22  1  0
 10 23  1  0
 10 24  1  0
 12 25  1  0
 12 26  1  0
M  END
$$$$

     RDKit          3D

 26 26  0  0  0  0  0  0  0  0999 V2000
   -2.7936    1.3199    0.5238 N   0  0  0  0  0  0  0  0  0  0  0  0
   -2.3710    0.7609   -0.7470 C   0  0  0  0  0  0  0  0  0  0  0  0
   -1.0137    0.0423   -0.5884 C   0  0  0  0  0  0  0  0  0  0  0  0
    0.0616    0.9478   -0.1226 C   0  0  0  0  0  0  0  0  0  0  0  0
    1.3123    0.5614    0.0532 O   0  0  0  0  0  0  0  0  0  0  0  0
    1.7380   -0.3953    0.8814 C   0  0  0  0  0  0  0  0  0  0  0  0
    3.2623   -0.4874    0.9014 C   0  0  0  0  0  0  0  0  0  0  0  0
    4.0686    0.3651    0.1161 N   0  0  0  0  0  0  0  0  0  0  0  0
    3.7260   -1.3675    1.6601 O   0  0  0  0  0  0  0  0  0  0  0  0
   -0.7539   -0.8906   -1.7083 C   0  0  0  0  0  0  0  0  0  0  0  0
   -0.7422   -2.0061   -0.9065 O   0  0  0  0  0  0  0  0  0  0  0  0
   -1.2327   -1.2495    0.1461 C   0  0  0  0  0  0  0  0  0  0  0  0
   -3.5893    1.9625    0.3103 H   0  0  0  0  0  0  0  0  0  0  0  0
   -3.1878    0.5306    1.0840 H   0  0  0  0  0  0  0  0  0  0  0  0
   -3.0986   -0.0339   -1.0103 H   0  0  0  0  0  0  0  0  0  0  0  0
   -2.2871    1.5073   -1.5364 H   0  0  0  0  0  0  0  0  0  0  0  0
    0.0630    1.8143   -0.8851 H   0  0  0  0  0  0  0  0  0  0  0  0
   -0.3748    1.5031    0.7816 H   0  0  0  0  0  0  0  0  0  0  0  0
    1.4373   -0.3639    1.9286 H   0  0  0  0  0  0  0  0  0  0  0  0
    1.4933   -1.4044    0.4078 H   0  0  0  0  0  0  0  0  0  0  0  0
    4.9715    0.0444   -0.2883 H   0  0  0  0  0  0  0  0  0  0  0  0
    3.7593    1.3386   -0.0672 H   0  0  0  0  0  0  0  0  0  0  0  0
   -1.6056   -0.9594   -2.4431 H   0  0  0  0  0  0  0  0  0  0  0  0
    0.1672   -0.7007   -2.2893 H   0  0  0  0  0  0  0  0  0  0  0  0
   -2.3293   -1.4963    0.3002 H   0  0  0  0  0  0  0  0  0  0  0  0
   -0.6810   -1.3431    1.0876 H   0  0  0  0  0  0  0  0  0  0  0  0
  1  2  1  0
  2  3  1  0
  3  4  1  0
  4  5  1  0
  5  6  1  0
  6  7  1  0
  7  8  1  0
  7  9  2  0
  3 10  1  0
 10 11  1  0
 11 12  1  0
 12  3  1  0
  1 13  1  0
  1 14  1  0
  2 15  1  0
  2 16  1  0
  4 17  1  0
  4 18  1  0
  6 19  1  0
  6 20  1  0
  8 21  1  0
  8 22  1  0
 10 23  1  0
 10 24  1  0
 12 25  1  0
 12 26  1  0
M  END
$$$$

     RDKit          3D

 26 26  0  0  0  0  0  0  0  0999 V2000
   -1.7947   -1.8359   -0.4605 N   0  0  0  0  0  0  0  0  0  0  0  0
   -2.1941   -0.4991   -0.8559 C   0  0  0  0  0  0  0  0  0  0  0  0
   -1.3382    0.4998   -0.1275 C   0  0  0  0  0  0  0  0  0  0  0  0
    0.1334    0.3431   -0.4278 C   0  0  0  0  0  0  0  0  0  0  0  0
    0.6376   -0.8766   -0.0897 O   0  0  0  0  0  0  0  0  0  0  0  0
    1.9703   -1.0390   -0.3605 C   0  0  0  0  0  0  0  0  0  0  0  0
    2.9034   -0.1558    0.3502 C   0  0  0  0  0  0  0  0  0  0  0  0
    4.2893   -0.2603    0.0587 N   0  0  0  0  0  0  0  0  0  0  0  0
    2.5608    0.6865    1.1988 O   0  0  0  0  0  0  0  0  0  0  0  0
   -1.7032    0.8084    1.2764 C   0  0  0  0  0  0  0  0  0  0  0  0
   -2.2321    2.0689    0.9202 O   0  0  0  0  0  0  0  0  0  0  0  0
   -1.7567    1.9328   -0.3929 C   0  0  0  0  0  0  0  0  0  0  0  0
   -1.8940   -2.5381   -1.2062 H   0  0  0  0  0  0  0  0  0  0  0  0
   -2.2393   -2.0713    0.4400 H   0  0  0  0  0  0  0  0  0  0  0  0
   -3.2543   -0.2958   -0.6468 H   0  0  0  0  0  0  0  0  0  0  0  0
   -2.0318   -0.3415   -1.9469 H   0  0  0  0  0  0  0  0  0  0  0  0
    0.2041    0.4146   -1.5562 H   0  0  0  0  0  0  0  0  0  0  0  0
    0.6662    1.1588    0.0645 H   0  0  0  0  0  0  0  0  0  0  0  0
    2.1649   -1.0255   -1.4790 H   0  0  0  0  0  0  0  0  0  0  0  0
    2.2430   -2.1091   -0.0897 H   0  0  0  0  0  0  0  0  0  0  0  0
    4.5571   -0.4488   -0.9318 H   0  0  0  0  0  0  0  0  0  0  0  0
    5.0300   -0.1540    0.8025 H   0  0  0  0  0  0  0  0  0  0  0  0
   -0.9065    0.9103    2.0154 H   0  0  0  0  0  0  0  0  0  0  0  0
   -2.5748    0.1781    1.6178 H   0  0  0  0  0  0  0  0  0  0  0  0
   -0.9147    2.6450   -0.5409 H   0  0  0  0  0  0  0  0  0  0  0  0
   -2.5258    2.0044   -1.1734 H   0  0  0  0  0  0  0  0  0  0  0  0
  1  2  1  0
  2  3  1  0
  3  4  1  0
  4  5  1  0
  5  6  1  0
  6  7  1  0
  7  8  1  0
  7  9  2  0
  3 10  1  0
 10 11  1  0
 11 12  1  0
 12  3  1  0
  1 13  1  0
  1 14  1  0
  2 15  1  0
  2 16  1  0
  4 17  1  0
  4 18  1  0
  6 19  1  0
  6 20  1  0
  8 21  1  0
  8 22  1  0
 10 23  1  0
 10 24  1  0
 12 25  1  0
 12 26  1  0
M  END
$$$$

     RDKit          3D

 26 26  0  0  0  0  0  0  0  0999 V2000
   -2.3496   -0.6220    1.8799 N   0  0  0  0  0  0  0  0  0  0  0  0
   -1.1912   -0.9532    1.0507 C   0  0  0  0  0  0  0  0  0  0  0  0
   -1.1943    0.0034   -0.1046 C   0  0  0  0  0  0  0  0  0  0  0  0
   -0.0534   -0.1880   -1.0834 C   0  0  0  0  0  0  0  0  0  0  0  0
    1.1269   -0.0090   -0.3760 O   0  0  0  0  0  0  0  0  0  0  0  0
    2.2484   -0.1643   -1.1883 C   0  0  0  0  0  0  0  0  0  0  0  0
    3.5073    0.0242   -0.4446 C   0  0  0  0  0  0  0  0  0  0  0  0
    3.5323    0.3288    0.9435 N   0  0  0  0  0  0  0  0  0  0  0  0
    4.5826   -0.0944   -1.0861 O   0  0  0  0  0  0  0  0  0  0  0  0
   -2.5355    0.2631   -0.7086 C   0  0  0  0  0  0  0  0  0  0  0  0
   -2.7403    1.2416    0.2910 O   0  0  0  0  0  0  0  0  0  0  0  0
   -1.3555    1.4548    0.2591 C   0  0  0  0  0  0  0  0  0  0  0  0
   -2.3622   -1.1251    2.7744 H   0  0  0  0  0  0  0  0  0  0  0  0
   -3.1908   -0.9124    1.3197 H   0  0  0  0  0  0  0  0  0  0  0  0
   -1.3284   -2.0017    0.7443 H   0  0  0  0  0  0  0  0  0  0  0  0
   -0.2853   -0.8341    1.6466 H   0  0  0  0  0  0  0  0  0  0  0  0
   -0.1361    0.5022   -1.9416 H   0  0  0  0  0  0  0  0  0  0  0  0
   -0.0912   -1.2249   -1.5154 H   0  0  0  0  0  0  0  0  0  0  0  0
    2.2022   -1.1934   -1.6030 H   0  0  0  0  0  0  0  0  0  0  0  0
    2.2198    0.5234   -2.0474 H   0  0  0  0  0  0  0  0  0  0  0  0
    4.3864    0.1639    1.5201 H   0  0  0  0  0  0  0  0  0  0  0  0
    2.7015    0.7262    1.4334 H   0  0  0  0  0  0  0  0  0  0  0  0
   -3.2651   -0.5575   -0.6879 H   0  0  0  0  0  0  0  0  0  0  0  0
   -2.4311    0.7962   -1.6884 H   0  0  0  0  0  0  0  0  0  0  0  0
   -0.9071    1.7623    1.2214 H   0  0  0  0  0  0  0  0  0  0  0  0
   -1.0902    2.0898   -0.6089 H   0  0  0  0  0  0  0  0  0  0  0  0
  1  2  1  0
  2  3  1  0
  3  4  1  0
  4  5  1  0
  5  6  1  0
  6  7  1  0
  7  8  1  0
  7  9  2  0
  3 10  1  0
 10 11  1  0
 11 12  1  0
 12  3  1  0
  1 13  1  0
  1 14  1  0
  2 15  1  0
  2 16  1  0
  4 17  1  0
  4 18  1  0
  6 19  1  0
  6 20  1  0
  8 21  1  0
  8 22  1  0
 10 23  1  0
 10 24  1  0
 12 25  1  0
 12 26  1  0
M  END
$$$$

     RDKit          3D

 26 26  0  0  0  0  0  0  0  0999 V2000
   -2.1788   -1.6506   -0.7939 N   0  0  0  0  0  0  0  0  0  0  0  0
   -2.3095   -0.2283   -0.8449 C   0  0  0  0  0  0  0  0  0  0  0  0
   -1.3283    0.4094    0.1079 C   0  0  0  0  0  0  0  0  0  0  0  0
    0.1248    0.0553   -0.2358 C   0  0  0  0  0  0  0  0  0  0  0  0
    0.9146    0.6800    0.6818 O   0  0  0  0  0  0  0  0  0  0  0  0
    2.2596    0.5217    0.5868 C   0  0  0  0  0  0  0  0  0  0  0  0
    2.7883   -0.8348    0.6947 C   0  0  0  0  0  0  0  0  0  0  0  0
    4.2008   -1.0047    0.5873 N   0  0  0  0  0  0  0  0  0  0  0  0
    2.1119   -1.8723    0.8743 O   0  0  0  0  0  0  0  0  0  0  0  0
   -1.6673    0.3365    1.5594 C   0  0  0  0  0  0  0  0  0  0  0  0
   -1.2557    1.6614    1.7394 O   0  0  0  0  0  0  0  0  0  0  0  0
   -1.5246    1.8731    0.3710 C   0  0  0  0  0  0  0  0  0  0  0  0
   -3.0332   -2.1242   -1.1177 H   0  0  0  0  0  0  0  0  0  0  0  0
   -1.8283   -1.9817    0.1266 H   0  0  0  0  0  0  0  0  0  0  0  0
   -3.3182    0.1594   -0.6934 H   0  0  0  0  0  0  0  0  0  0  0  0
   -1.9906    0.0982   -1.8762 H   0  0  0  0  0  0  0  0  0  0  0  0
    0.1839   -1.0388   -0.1137 H   0  0  0  0  0  0  0  0  0  0  0  0
    0.2700    0.3890   -1.2814 H   0  0  0  0  0  0  0  0  0  0  0  0
    2.6154    1.0170   -0.3489 H   0  0  0  0  0  0  0  0  0  0  0  0
    2.7179    1.1207    1.4257 H   0  0  0  0  0  0  0  0  0  0  0  0
    4.6730   -1.7394    1.1552 H   0  0  0  0  0  0  0  0  0  0  0  0
    4.7773   -0.4120   -0.0461 H   0  0  0  0  0  0  0  0  0  0  0  0
   -1.1021   -0.3978    2.1637 H   0  0  0  0  0  0  0  0  0  0  0  0
   -2.7685    0.2706    1.6953 H   0  0  0  0  0  0  0  0  0  0  0  0
   -2.5719    2.1607    0.1722 H   0  0  0  0  0  0  0  0  0  0  0  0
   -0.7605    2.5315   -0.1278 H   0  0  0  0  0  0  0  0  0  0  0  0
  1  2  1  0
  2  3  1  0
  3  4  1  0
  4  5  1  0
  5  6  1  0
  6  7  1  0
  7  8  1  0
  7  9  2  0
  3 10  1  0
 10 11  1  0
 11 12  1  0
 12  3  1  0
  1 13  1  0
  1 14  1  0
  2 15  1  0
  2 16  1  0
  4 17  1  0
  4 18  1  0
  6 19  1  0
  6 20  1  0
  8 21  1  0
  8 22  1  0
 10 23  1  0
 10 24  1  0
 12 25  1  0
 12 26  1  0
M  END
$$$$
