
     RDKit          3D

 26 26  0  0  0  0  0  0  0  0999 V2000
    1.2625    1.8153    0.7035 C   0  0  0  0  0  0  0  0  0  0  0  0
    0.7849    1.0684   -0.3579 N   0  0  0  0  0  0  0  0  0  0  0  0
    0.3170   -0.2444   -0.1987 C   0  0  2  0  0  0  0  0  0  0  0  0
    1.3310   -1.1535    0.3292 C   0  0  0  0  0  0  0  0  0  0  0  0
    2.6058   -1.2526   -0.2836 N   0  0  0  0  0  0  0  0  0  0  0  0
    1.1217   -1.8708    1.3421 O   0  0  0  0  0  0  0  0  0  0  0  0
   -0.5126   -0.6474   -1.3679 C   0  0  0  0  0  0  0  0  0  0  0  0
   -1.5410    0.4889   -1.3581 C   0  0  0  0  0  0  0  0  0  0  0  0
   -1.9269    0.5053    0.1212 C   0  0  0  0  0  0  0  0  0  0  0  0
   -0.8335   -0.1724    0.8634 C   0  0  1  0  0  0  0  0  0  0  0  0
   -1.1186   -1.4572    1.3963 N   0  0  0  0  0  0  0  0  0  0  0  0
    1.3893    1.4131    1.6723 H   0  0  0  0  0  0  0  0  0  0  0  0
    0.6795    2.7916    0.7376 H   0  0  0  0  0  0  0  0  0  0  0  0
    2.2975    2.2041    0.4097 H   0  0  0  0  0  0  0  0  0  0  0  0
    1.2503    1.1974   -1.2847 H   0  0  0  0  0  0  0  0  0  0  0  0
    3.3992   -1.0251    0.3643 H   0  0  0  0  0  0  0  0  0  0  0  0
    2.7954   -1.4962   -1.2319 H   0  0  0  0  0  0  0  0  0  0  0  0
   -1.1632   -1.5487   -1.1949 H   0  0  0  0  0  0  0  0  0  0  0  0
   -0.0421   -0.6946   -2.3358 H   0  0  0  0  0  0  0  0  0  0  0  0
   -1.0406    1.4162   -1.6483 H   0  0  0  0  0  0  0  0  0  0  0  0
   -2.3976    0.2549   -1.9678 H   0  0  0  0  0  0  0  0  0  0  0  0
   -2.0227    1.5321    0.5240 H   0  0  0  0  0  0  0  0  0  0  0  0
   -2.8998    0.0390    0.2336 H   0  0  0  0  0  0  0  0  0  0  0  0
   -0.4268    0.4305    1.6888 H   0  0  0  0  0  0  0  0  0  0  0  0
   -1.4280   -2.1925    0.7219 H   0  0  0  0  0  0  0  0  0  0  0  0
   -1.8805   -1.4013    2.1217 H   0  0  0  0  0  0  0  0  0  0  0  0
  1  2  1  0
  3  2  1  6
  3  4  1  0
  4  5  1  0
  4  6  2  0
  3  7  1  0
  7  8  1  0
  8  9  1  0
  9 10  1  0
 10 11  1  0
 10  3  1  0
  1 12  1  0
  1 13  1  0
  1 14  1  0
  2 15  1  0
  5 16  1  0
  5 17  1  0
  7 18  1  0
  7 19  1  0
  8 20  1  0
  8 21  1  0
  9 22  1  0
  9 23  1  0
 10 24  1  1
 11 25  1  0
 11 26  1  0
M  END
$$$$

     RDKit          3D

 26 26  0  0  0  0  0  0  0  0999 V2000
    1.7872   -1.7624   -0.3139 C   0  0  0  0  0  0  0  0  0  0  0  0
    1.6944   -0.4277    0.1117 N   0  0  0  0  0  0  0  0  0  0  0  0
    0.3842    0.1902    0.0977 C   0  0  2  0  0  0  0  0  0  0  0  0
    0.6006    1.6564    0.3141 C   0  0  0  0  0  0  0  0  0  0  0  0
    1.3063    2.4034   -0.6919 N   0  0  0  0  0  0  0  0  0  0  0  0
    0.2073    2.2597    1.3017 O   0  0  0  0  0  0  0  0  0  0  0  0
   -0.2027   -0.2947    1.4987 C   0  0  0  0  0  0  0  0  0  0  0  0
   -1.6581   -0.0738    1.2602 C   0  0  0  0  0  0  0  0  0  0  0  0
   -1.8097   -0.8809   -0.0400 C   0  0  0  0  0  0  0  0  0  0  0  0
   -0.6091   -0.3064   -0.8541 C   0  0  1  0  0  0  0  0  0  0  0  0
   -1.1688    0.6361   -1.8013 N   0  0  0  0  0  0  0  0  0  0  0  0
    1.0487   -2.4519    0.1517 H   0  0  0  0  0  0  0  0  0  0  0  0
    2.8278   -2.1464   -0.0600 H   0  0  0  0  0  0  0  0  0  0  0  0
    1.7106   -1.8471   -1.4286 H   0  0  0  0  0  0  0  0  0  0  0  0
    2.2172   -0.0835    0.9262 H   0  0  0  0  0  0  0  0  0  0  0  0
    2.1593    2.9717   -0.3218 H   0  0  0  0  0  0  0  0  0  0  0  0
    1.1154    2.4432   -1.7237 H   0  0  0  0  0  0  0  0  0  0  0  0
    0.0178   -1.3587    1.5726 H   0  0  0  0  0  0  0  0  0  0  0  0
    0.2419    0.3249    2.2662 H   0  0  0  0  0  0  0  0  0  0  0  0
   -2.3016   -0.5254    2.0565 H   0  0  0  0  0  0  0  0  0  0  0  0
   -1.8725    0.9741    1.0596 H   0  0  0  0  0  0  0  0  0  0  0  0
   -2.7587   -0.7087   -0.5459 H   0  0  0  0  0  0  0  0  0  0  0  0
   -1.5743   -1.9261    0.1553 H   0  0  0  0  0  0  0  0  0  0  0  0
   -0.2000   -1.1683   -1.4400 H   0  0  0  0  0  0  0  0  0  0  0  0
   -0.9832    1.6313   -1.5826 H   0  0  0  0  0  0  0  0  0  0  0  0
   -2.1800    0.4710   -1.9686 H   0  0  0  0  0  0  0  0  0  0  0  0
  1  2  1  0
  3  2  1  6
  3  4  1  0
  4  5  1  0
  4  6  2  0
  3  7  1  0
  7  8  1  0
  8  9  1  0
  9 10  1  0
 10 11  1  0
 10  3  1  0
  1 12  1  0
  1 13  1  0
  1 14  1  0
  2 15  1  0
  5 16  1  0
  5 17  1  0
  7 18  1  0
  7 19  1  0
  8 20  1  0
  8 21  1  0
  9 22  1  0
  9 23  1  0
 10 24  1  6
 11 25  1  0
 11 26  1  0
M  END
$$$$

     RDKit          3D

 26 26  0  0  0  0  0  0  0  0999 V2000
    2.4717   -1.1137    0.0522 C   0  0  0  0  0  0  0  0  0  0  0  0
    1.5141   -0.5194   -0.7951 N   0  0  0  0  0  0  0  0  0  0  0  0
    0.3865    0.0988   -0.2180 C   0  0  2  0  0  0  0  0  0  0  0  0
    0.2493    1.4397   -0.8386 C   0  0  0  0  0  0  0  0  0  0  0  0
   -0.1201    2.6021   -0.1306 N   0  0  0  0  0  0  0  0  0  0  0  0
    0.4875    1.5915   -2.0723 O   0  0  0  0  0  0  0  0  0  0  0  0
    0.3368    0.1308    1.2563 C   0  0  0  0  0  0  0  0  0  0  0  0
   -1.1018   -0.1148    1.7046 C   0  0  0  0  0  0  0  0  0  0  0  0
   -1.8219   -0.6589    0.5063 C   0  0  0  0  0  0  0  0  0  0  0  0
   -0.8100   -0.7446   -0.6030 C   0  0  1  0  0  0  0  0  0  0  0  0
   -1.4216   -0.3362   -1.8172 N   0  0  0  0  0  0  0  0  0  0  0  0
    3.3763   -1.3066   -0.5529 H   0  0  0  0  0  0  0  0  0  0  0  0
    2.1159   -2.1501    0.3569 H   0  0  0  0  0  0  0  0  0  0  0  0
    2.7853   -0.5384    0.9439 H   0  0  0  0  0  0  0  0  0  0  0  0
    1.7867   -0.2107   -1.7118 H   0  0  0  0  0  0  0  0  0  0  0  0
    0.3672    2.9394    0.7158 H   0  0  0  0  0  0  0  0  0  0  0  0
   -0.9395    3.1507   -0.4791 H   0  0  0  0  0  0  0  0  0  0  0  0
    0.5937    1.1391    1.7169 H   0  0  0  0  0  0  0  0  0  0  0  0
    0.9411   -0.6428    1.7446 H   0  0  0  0  0  0  0  0  0  0  0  0
   -1.5968    0.8007    2.0731 H   0  0  0  0  0  0  0  0  0  0  0  0
   -1.1569   -0.8674    2.5058 H   0  0  0  0  0  0  0  0  0  0  0  0
   -2.6714    0.0167    0.2282 H   0  0  0  0  0  0  0  0  0  0  0  0
   -2.2907   -1.6398    0.6935 H   0  0  0  0  0  0  0  0  0  0  0  0
   -0.4367   -1.8102   -0.6521 H   0  0  0  0  0  0  0  0  0  0  0  0
   -2.2748   -0.9188   -1.9937 H   0  0  0  0  0  0  0  0  0  0  0  0
   -0.7696   -0.3371   -2.6335 H   0  0  0  0  0  0  0  0  0  0  0  0
  1  2  1  0
  3  2  1  1
  3  4  1  0
  4  5  1  0
  4  6  2  0
  3  7  1  0
  7  8  1  0
  8  9  1  0
  9 10  1  0
 10 11  1  0
 10  3  1  0
  1 12  1  0
  1 13  1  0
  1 14  1  0
  2 15  1  0
  5 16  1  0
  5 17  1  0
  7 18  1  0
  7 19  1  0
  8 20  1  0
  8 21  1  0
  9 22  1  0
  9 23  1  0
 10 24  1  6
 11 25  1  0
 11 26  1  0
M  END
$$$$

     RDKit          3D

 26 26  0  0  0  0  0  0  0  0999 V2000
    1.7138    1.8500    0.4892 C   0  0  0  0  0  0  0  0  0  0  0  0
    1.1460    1.0546   -0.5626 N   0  0  0  0  0  0  0  0  0  0  0  0
    0.3328   -0.0388   -0.1101 C   0  0  2  0  0  0  0  0  0  0  0  0
    1.2379   -1.1072    0.3652 C   0  0  0  0  0  0  0  0  0  0  0  0
    1.8747   -1.9291   -0.5900 N   0  0  0  0  0  0  0  0  0  0  0  0
    1.4796   -1.2307    1.5780 O   0  0  0  0  0  0  0  0  0  0  0  0
   -0.3962   -0.5888   -1.3264 C   0  0  0  0  0  0  0  0  0  0  0  0
   -1.6909    0.1777   -1.2961 C   0  0  0  0  0  0  0  0  0  0  0  0
   -2.0458    0.1396    0.1676 C   0  0  0  0  0  0  0  0  0  0  0  0
   -0.7265    0.3461    0.8770 C   0  0  1  0  0  0  0  0  0  0  0  0
   -0.7269   -0.5168    2.0376 N   0  0  0  0  0  0  0  0  0  0  0  0
    2.6313    2.3346    0.0778 H   0  0  0  0  0  0  0  0  0  0  0  0
    1.9945    1.2315    1.3530 H   0  0  0  0  0  0  0  0  0  0  0  0
    1.0324    2.6708    0.8079 H   0  0  0  0  0  0  0  0  0  0  0  0
    0.6251    1.6468   -1.2403 H   0  0  0  0  0  0  0  0  0  0  0  0
    2.5023   -2.7179   -0.3396 H   0  0  0  0  0  0  0  0  0  0  0  0
    1.7306   -1.7829   -1.6231 H   0  0  0  0  0  0  0  0  0  0  0  0
    0.1889   -0.4267   -2.2465 H   0  0  0  0  0  0  0  0  0  0  0  0
   -0.6184   -1.6564   -1.1304 H   0  0  0  0  0  0  0  0  0  0  0  0
   -1.5189    1.2049   -1.6569 H   0  0  0  0  0  0  0  0  0  0  0  0
   -2.4295   -0.3595   -1.9167 H   0  0  0  0  0  0  0  0  0  0  0  0
   -2.4763   -0.8485    0.4222 H   0  0  0  0  0  0  0  0  0  0  0  0
   -2.7839    0.9152    0.4062 H   0  0  0  0  0  0  0  0  0  0  0  0
   -0.6563    1.4146    1.1294 H   0  0  0  0  0  0  0  0  0  0  0  0
   -1.5449   -0.2844    2.6394 H   0  0  0  0  0  0  0  0  0  0  0  0
   -0.8755   -1.4986    1.6882 H   0  0  0  0  0  0  0  0  0  0  0  0
  1  2  1  0
  3  2  1  6
  3  4  1  0
  4  5  1  0
  4  6  2  0
  3  7  1  0
  7  8  1  0
  8  9  1  0
  9 10  1  0
 10 11  1  0
 10  3  1  0
  1 12  1  0
  1 13  1  0
  1 14  1  0
  2 15  1  0
  5 16  1  0
  5 17  1  0
  7 18  1  0
  7 19  1  0
  8 20  1  0
  8 21  1  0
  9 22  1  0
  9 23  1  0
 10 24  1  1
 11 25  1  0
 11 26  1  0
M  END
$$$$

     RDKit          3D

 26 26  0  0  0  0  0  0  0  0999 V2000
    1.3861    0.9361   -1.9033 C   0  0  0  0  0  0  0  0  0  0  0  0
    0.1342    0.7827   -1.2661 N   0  0  0  0  0  0  0  0  0  0  0  0
    0.1701    0.1367   -0.0074 C   0  0  2  0  0  0  0  0  0  0  0  0
    1.1863    0.8425    0.8509 C   0  0  0  0  0  0  0  0  0  0  0  0
    0.9809    2.2729    0.8160 N   0  0  0  0  0  0  0  0  0  0  0  0
    2.0279    0.3536    1.5338 O   0  0  0  0  0  0  0  0  0  0  0  0
    0.4916   -1.3284   -0.1808 C   0  0  0  0  0  0  0  0  0  0  0  0
   -0.8919   -1.8559   -0.5728 C   0  0  0  0  0  0  0  0  0  0  0  0
   -1.8754   -1.0441    0.2730 C   0  0  0  0  0  0  0  0  0  0  0  0
   -1.0974    0.1337    0.7698 C   0  0  1  0  0  0  0  0  0  0  0  0
   -0.7710   -0.0972    2.1831 N   0  0  0  0  0  0  0  0  0  0  0  0
    1.2831    1.1675   -2.9913 H   0  0  0  0  0  0  0  0  0  0  0  0
    1.9234    1.8461   -1.4854 H   0  0  0  0  0  0  0  0  0  0  0  0
    2.0673    0.1006   -1.7813 H   0  0  0  0  0  0  0  0  0  0  0  0
   -0.6320    0.4291   -1.8983 H   0  0  0  0  0  0  0  0  0  0  0  0
    1.8189    2.9261    0.8029 H   0  0  0  0  0  0  0  0  0  0  0  0
    0.0712    2.7373    0.6862 H   0  0  0  0  0  0  0  0  0  0  0  0
    0.7982   -1.8340    0.7285 H   0  0  0  0  0  0  0  0  0  0  0  0
    1.1967   -1.5677   -0.9829 H   0  0  0  0  0  0  0  0  0  0  0  0
   -1.0500   -1.5551   -1.6216 H   0  0  0  0  0  0  0  0  0  0  0  0
   -1.0008   -2.9317   -0.4069 H   0  0  0  0  0  0  0  0  0  0  0  0
   -2.2225   -1.6671    1.1103 H   0  0  0  0  0  0  0  0  0  0  0  0
   -2.7007   -0.6482   -0.3524 H   0  0  0  0  0  0  0  0  0  0  0  0
   -1.6209    1.1010    0.6853 H   0  0  0  0  0  0  0  0  0  0  0  0
   -1.6107   -0.3863    2.7188 H   0  0  0  0  0  0  0  0  0  0  0  0
   -0.0625   -0.8500    2.2917 H   0  0  0  0  0  0  0  0  0  0  0  0
  1  2  1  0
  3  2  1  6
  3  4  1  0
  4  5  1  0
  4  6  2  0
  3  7  1  0
  7  8  1  0
  8  9  1  0
  9 10  1  0
 10 11  1  0
 10  3  1  0
  1 12  1  0
  1 13  1  0
  1 14  1  0
  2 15  1  0
  5 16  1  0
  5 17  1  0
  7 18  1  0
  7 19  1  0
  8 20  1  0
  8 21  1  0
  9 22  1  0
  9 23  1  0
 10 24  1  1
 11 25  1  0
 11 26  1  0
M  END
$$$$

     RDKit          3D

 26 26  0  0  0  0  0  0  0  0999 V2000
    2.3315   -1.2418    0.9098 C   0  0  0  0  0  0  0  0  0  0  0  0
    1.2070   -1.2311    0.0644 N   0  0  0  0  0  0  0  0  0  0  0  0
    0.4400   -0.0623   -0.0405 C   0  0  2  0  0  0  0  0  0  0  0  0
    1.1932    1.1098   -0.6018 C   0  0  0  0  0  0  0  0  0  0  0  0
    0.5613    2.3702   -0.7750 N   0  0  0  0  0  0  0  0  0  0  0  0
    2.3817    0.9923   -0.9228 O   0  0  0  0  0  0  0  0  0  0  0  0
   -0.3100    0.3795    1.1552 C   0  0  0  0  0  0  0  0  0  0  0  0
   -1.6738   -0.2745    1.1135 C   0  0  0  0  0  0  0  0  0  0  0  0
   -1.6275   -1.1679   -0.0995 C   0  0  0  0  0  0  0  0  0  0  0  0
   -0.6942   -0.4186   -1.0137 C   0  0  1  0  0  0  0  0  0  0  0  0
   -1.2820    0.7435   -1.5949 N   0  0  0  0  0  0  0  0  0  0  0  0
    2.0924   -0.9671    1.9352 H   0  0  0  0  0  0  0  0  0  0  0  0
    3.2180   -0.6783    0.5041 H   0  0  0  0  0  0  0  0  0  0  0  0
    2.7043   -2.3087    0.9648 H   0  0  0  0  0  0  0  0  0  0  0  0
    1.3333   -1.6672   -0.8513 H   0  0  0  0  0  0  0  0  0  0  0  0
    0.3898    3.0403    0.0205 H   0  0  0  0  0  0  0  0  0  0  0  0
    0.2254    2.7122   -1.7125 H   0  0  0  0  0  0  0  0  0  0  0  0
   -0.4952    1.4868    1.0717 H   0  0  0  0  0  0  0  0  0  0  0  0
    0.2051    0.2455    2.1227 H   0  0  0  0  0  0  0  0  0  0  0  0
   -2.4967    0.4576    0.9354 H   0  0  0  0  0  0  0  0  0  0  0  0
   -1.9302   -0.8077    2.0382 H   0  0  0  0  0  0  0  0  0  0  0  0
   -2.5994   -1.3218   -0.5642 H   0  0  0  0  0  0  0  0  0  0  0  0
   -1.1373   -2.1229    0.1911 H   0  0  0  0  0  0  0  0  0  0  0  0
   -0.3497   -1.1009   -1.7973 H   0  0  0  0  0  0  0  0  0  0  0  0
   -1.6109    1.4053   -0.8594 H   0  0  0  0  0  0  0  0  0  0  0  0
   -2.0760    0.4279   -2.1936 H   0  0  0  0  0  0  0  0  0  0  0  0
  1  2  1  0
  3  2  1  1
  3  4  1  0
  4  5  1  0
  4  6  2  0
  3  7  1  0
  7  8  1  0
  8  9  1  0
  9 10  1  0
 10 11  1  0
 10  3  1  0
  1 12  1  0
  1 13  1  0
  1 14  1  0
  2 15  1  0
  5 16  1  0
  5 17  1  0
  7 18  1  0
  7 19  1  0
  8 20  1  0
  8 21  1  0
  9 22  1  0
  9 23  1  0
 10 24  1  6
 11 25  1  0
 11 26  1  0
M  END
$$$$

     RDKit          3D

 26 26  0  0  0  0  0  0  0  0999 V2000
   -1.3465    1.1757    2.0321 C   0  0  0  0  0  0  0  0  0  0  0  0
   -0.9466   -0.1457    1.6699 N   0  0  0  0  0  0  0  0  0  0  0  0
   -0.3502   -0.2496    0.3448 C   0  0  2  0  0  0  0  0  0  0  0  0
   -1.2829    0.1284   -0.7127 C   0  0  0  0  0  0  0  0  0  0  0  0
   -0.9980    0.1276   -2.0954 N   0  0  0  0  0  0  0  0  0  0  0  0
   -2.4615    0.4950   -0.3915 O   0  0  0  0  0  0  0  0  0  0  0  0
    0.0341   -1.7138    0.1686 C   0  0  0  0  0  0  0  0  0  0  0  0
    1.1508   -1.6845   -0.8251 C   0  0  0  0  0  0  0  0  0  0  0  0
    1.6505   -0.2674   -0.8912 C   0  0  0  0  0  0  0  0  0  0  0  0
    0.9981    0.4100    0.2885 C   0  0  1  0  0  0  0  0  0  0  0  0
    0.9316    1.8327    0.1449 N   0  0  0  0  0  0  0  0  0  0  0  0
   -1.1401    1.9556    1.2970 H   0  0  0  0  0  0  0  0  0  0  0  0
   -2.4673    1.1994    2.1784 H   0  0  0  0  0  0  0  0  0  0  0  0
   -0.8287    1.4874    2.9870 H   0  0  0  0  0  0  0  0  0  0  0  0
   -1.7537   -0.7999    1.7207 H   0  0  0  0  0  0  0  0  0  0  0  0
   -1.0147   -0.7859   -2.6155 H   0  0  0  0  0  0  0  0  0  0  0  0
   -0.7660    0.9725   -2.6669 H   0  0  0  0  0  0  0  0  0  0  0  0
    0.4470   -2.1223    1.1365 H   0  0  0  0  0  0  0  0  0  0  0  0
   -0.8386   -2.3170   -0.1762 H   0  0  0  0  0  0  0  0  0  0  0  0
    0.8441   -2.0661   -1.8136 H   0  0  0  0  0  0  0  0  0  0  0  0
    2.0135   -2.3345   -0.5134 H   0  0  0  0  0  0  0  0  0  0  0  0
    1.3461    0.2745   -1.8034 H   0  0  0  0  0  0  0  0  0  0  0  0
    2.7711   -0.2319   -0.8087 H   0  0  0  0  0  0  0  0  0  0  0  0
    1.5750    0.0871    1.1847 H   0  0  0  0  0  0  0  0  0  0  0  0
    1.1844    2.1932   -0.7879 H   0  0  0  0  0  0  0  0  0  0  0  0
    1.2488    2.3797    0.9484 H   0  0  0  0  0  0  0  0  0  0  0  0
  1  2  1  0
  3  2  1  1
  3  4  1  0
  4  5  1  0
  4  6  2  0
  3  7  1  0
  7  8  1  0
  8  9  1  0
  9 10  1  0
 10 11  1  0
 10  3  1  0
  1 12  1  0
  1 13  1  0
  1 14  1  0
  2 15  1  0
  5 16  1  0
  5 17  1  0
  7 18  1  0
  7 19  1  0
  8 20  1  0
  8 21  1  0
  9 22  1  0
  9 23  1  0
 10 24  1  1
 11 25  1  0
 11 26  1  0
M  END
$$$$

     RDKit          3D

 26 26  0  0  0  0  0  0  0  0999 V2000
   -1.7451   -1.6759   -1.1272 C   0  0  0  0  0  0  0  0  0  0  0  0
   -0.6416   -0.9040   -1.6252 N   0  0  0  0  0  0  0  0  0  0  0  0
   -0.1351    0.0098   -0.5800 C   0  0  2  0  0  0  0  0  0  0  0  0
   -1.1757    0.9716   -0.1920 C   0  0  0  0  0  0  0  0  0  0  0  0
   -1.3099    1.6456    1.0321 N   0  0  0  0  0  0  0  0  0  0  0  0
   -2.0787    1.2307   -1.0709 O   0  0  0  0  0  0  0  0  0  0  0  0
    0.9843    0.7894   -1.2580 C   0  0  0  0  0  0  0  0  0  0  0  0
    1.7813    1.2943   -0.0840 C   0  0  0  0  0  0  0  0  0  0  0  0
    1.5874    0.2844    1.0185 C   0  0  0  0  0  0  0  0  0  0  0  0
    0.5666   -0.6744    0.5214 C   0  0  1  0  0  0  0  0  0  0  0  0
   -0.3172   -1.1658    1.5629 N   0  0  0  0  0  0  0  0  0  0  0  0
   -2.3625   -2.0749   -1.9589 H   0  0  0  0  0  0  0  0  0  0  0  0
   -2.4283   -1.0793   -0.4907 H   0  0  0  0  0  0  0  0  0  0  0  0
   -1.3404   -2.5479   -0.5603 H   0  0  0  0  0  0  0  0  0  0  0  0
    0.1564   -1.5617   -1.8023 H   0  0  0  0  0  0  0  0  0  0  0  0
   -2.2559    1.7075    1.4638 H   0  0  0  0  0  0  0  0  0  0  0  0
   -0.5148    2.0713    1.5113 H   0  0  0  0  0  0  0  0  0  0  0  0
    0.6077    1.5993   -1.8929 H   0  0  0  0  0  0  0  0  0  0  0  0
    1.6452    0.0895   -1.8308 H   0  0  0  0  0  0  0  0  0  0  0  0
    1.3903    2.2759    0.2317 H   0  0  0  0  0  0  0  0  0  0  0  0
    2.8696    1.3898   -0.3413 H   0  0  0  0  0  0  0  0  0  0  0  0
    2.5740   -0.2529    1.1358 H   0  0  0  0  0  0  0  0  0  0  0  0
    1.3798    0.7337    2.0098 H   0  0  0  0  0  0  0  0  0  0  0  0
    1.1052   -1.5499    0.0833 H   0  0  0  0  0  0  0  0  0  0  0  0
    0.0354   -2.1035    1.8762 H   0  0  0  0  0  0  0  0  0  0  0  0
   -0.3780   -0.5023    2.3677 H   0  0  0  0  0  0  0  0  0  0  0  0
  1  2  1  0
  3  2  1  6
  3  4  1  0
  4  5  1  0
  4  6  2  0
  3  7  1  0
  7  8  1  0
  8  9  1  0
  9 10  1  0
 10 11  1  0
 10  3  1  0
  1 12  1  0
  1 13  1  0
  1 14  1  0
  2 15  1  0
  5 16  1  0
  5 17  1  0
  7 18  1  0
  7 19  1  0
  8 20  1  0
  8 21  1  0
  9 22  1  0
  9 23  1  0
 10 24  1  6
 11 25  1  0
 11 26  1  0
M  END
$$$$
