
     RDKit          3D

 30 30  0  0  0  0  0  0  0  0999 V2000
   -2.1063   -1.1362   -0.9255 C   0  0  0  0  0  0  0  0  0  0  0  0
   -1.6908   -0.4171    0.3009 C   0  0  2  0  0  0  0  0  0  0  0  0
   -1.6571   -1.2295    1.4561 O   0  0  0  0  0  0  0  0  0  0  0  0
   -2.8232    0.5871    0.6119 C   0  0  0  0  0  0  0  0  0  0  0  0
   -2.9034    1.4550   -0.5553 N   0  0  0  0  0  0  0  0  0  0  0  0
   -0.4263    0.3645    0.2476 C   0  0  0  0  0  0  0  0  0  0  0  0
    0.7890   -0.3511    0.1933 N   0  0  0  0  0  0  0  0  0  0  0  0
    1.1951   -1.0900   -0.9293 C   0  0  0  0  0  0  0  0  0  0  0  0
    2.5551   -0.4119   -0.9850 C   0  0  0  0  0  0  0  0  0  0  0  0
    1.9384    0.5197    0.0462 C   0  0  2  0  0  0  0  0  0  0  0  0
    2.7598    0.5229    1.3289 C   0  0  0  0  0  0  0  0  0  0  0  0
    3.8496    1.3678    1.1812 O   0  0  0  0  0  0  0  0  0  0  0  0
   -1.6360   -0.8687   -1.8623 H   0  0  0  0  0  0  0  0  0  0  0  0
   -1.9432   -2.2385   -0.7461 H   0  0  0  0  0  0  0  0  0  0  0  0
   -3.2202   -1.0437   -1.1240 H   0  0  0  0  0  0  0  0  0  0  0  0
   -1.1458   -2.0597    1.2964 H   0  0  0  0  0  0  0  0  0  0  0  0
   -2.5523    1.2106    1.4770 H   0  0  0  0  0  0  0  0  0  0  0  0
   -3.7718    0.0691    0.7361 H   0  0  0  0  0  0  0  0  0  0  0  0
   -2.3436    2.3101   -0.4769 H   0  0  0  0  0  0  0  0  0  0  0  0
   -3.8947    1.7161   -0.7509 H   0  0  0  0  0  0  0  0  0  0  0  0
   -0.4954    1.1665   -0.5451 H   0  0  0  0  0  0  0  0  0  0  0  0
   -0.4068    0.9756    1.2012 H   0  0  0  0  0  0  0  0  0  0  0  0
    0.7140   -0.9902   -1.8959 H   0  0  0  0  0  0  0  0  0  0  0  0
    1.3395   -2.1723   -0.6975 H   0  0  0  0  0  0  0  0  0  0  0  0
    2.7791    0.0755   -1.9512 H   0  0  0  0  0  0  0  0  0  0  0  0
    3.3996   -1.0261   -0.6208 H   0  0  0  0  0  0  0  0  0  0  0  0
    1.7658    1.5077   -0.3971 H   0  0  0  0  0  0  0  0  0  0  0  0
    3.1640   -0.5062    1.5158 H   0  0  0  0  0  0  0  0  0  0  0  0
    2.0708    0.8032    2.1321 H   0  0  0  0  0  0  0  0  0  0  0  0
    4.6969    0.8896    1.2220 H   0  0  0  0  0  0  0  0  0  0  0  0
  1  2  1  0
  2  3  1  1
  2  4  1  0
  4  5  1  0
  2  6  1  0
  6  7  1  0
  7  8  1  0
  8  9  1  0
  9 10  1  0
 10 11  1  0
 11 12  1  0
 10  7  1  0
  1 13  1  0
  1 14  1  0
  1 15  1  0
  3 16  1  0
  4 17  1  0
  4 18  1  0
  5 19  1  0
  5 20  1  0
  6 21  1  0
  6 22  1  0
  8 23  1  0
  8 24  1  0
  9 25  1  0
  9 26  1  0
 10 27  1  6
 11 28  1  0
 11 29  1  0
 12 30  1  0
M  END
$$$$

     RDKit          3D

 30 30  0  0  0  0  0  0  0  0999 V2000
    1.7792   -1.8424    0.3119 C   0  0  0  0  0  0  0  0  0  0  0  0
    1.4736   -0.4669   -0.2250 C   0  0  2  0  0  0  0  0  0  0  0  0
    0.9530   -0.5205   -1.5102 O   0  0  0  0  0  0  0  0  0  0  0  0
    2.8171    0.2556   -0.3507 C   0  0  0  0  0  0  0  0  0  0  0  0
    2.6392    1.5780   -0.8810 N   0  0  0  0  0  0  0  0  0  0  0  0
    0.5932    0.3302    0.6645 C   0  0  0  0  0  0  0  0  0  0  0  0
   -0.7413   -0.1386    0.8423 N   0  0  0  0  0  0  0  0  0  0  0  0
   -1.4215    0.7942    1.7628 C   0  0  0  0  0  0  0  0  0  0  0  0
   -2.6988    0.4512    1.0453 C   0  0  0  0  0  0  0  0  0  0  0  0
   -1.7361    0.2294   -0.1322 C   0  0  2  0  0  0  0  0  0  0  0  0
   -2.3076   -0.8742   -0.9823 C   0  0  0  0  0  0  0  0  0  0  0  0
   -3.2462   -0.2504   -1.8376 O   0  0  0  0  0  0  0  0  0  0  0  0
    1.0519   -2.1208    1.1140 H   0  0  0  0  0  0  0  0  0  0  0  0
    1.6755   -2.5576   -0.5496 H   0  0  0  0  0  0  0  0  0  0  0  0
    2.8259   -1.9398    0.6638 H   0  0  0  0  0  0  0  0  0  0  0  0
    1.2454    0.2881   -2.0113 H   0  0  0  0  0  0  0  0  0  0  0  0
    3.4983   -0.3537   -0.9884 H   0  0  0  0  0  0  0  0  0  0  0  0
    3.2770    0.3645    0.6677 H   0  0  0  0  0  0  0  0  0  0  0  0
    3.0417    2.3103   -0.2775 H   0  0  0  0  0  0  0  0  0  0  0  0
    2.9504    1.6705   -1.8704 H   0  0  0  0  0  0  0  0  0  0  0  0
    0.5178    1.3953    0.3067 H   0  0  0  0  0  0  0  0  0  0  0  0
    1.0487    0.3849    1.6981 H   0  0  0  0  0  0  0  0  0  0  0  0
   -1.1182    1.8164    1.5389 H   0  0  0  0  0  0  0  0  0  0  0  0
   -1.3664    0.4783    2.8199 H   0  0  0  0  0  0  0  0  0  0  0  0
   -3.1524   -0.4829    1.3995 H   0  0  0  0  0  0  0  0  0  0  0  0
   -3.3938    1.2979    0.8820 H   0  0  0  0  0  0  0  0  0  0  0  0
   -1.5401    1.1812   -0.6557 H   0  0  0  0  0  0  0  0  0  0  0  0
   -1.6075   -1.3813   -1.6386 H   0  0  0  0  0  0  0  0  0  0  0  0
   -2.9004   -1.5722   -0.3430 H   0  0  0  0  0  0  0  0  0  0  0  0
   -4.1575   -0.3249   -1.4641 H   0  0  0  0  0  0  0  0  0  0  0  0
  1  2  1  0
  2  3  1  6
  2  4  1  0
  4  5  1  0
  2  6  1  0
  6  7  1  0
  7  8  1  0
  8  9  1  0
  9 10  1  0
 10 11  1  0
 11 12  1  0
 10  7  1  0
  1 13  1  0
  1 14  1  0
  1 15  1  0
  3 16  1  0
  4 17  1  0
  4 18  1  0
  5 19  1  0
  5 20  1  0
  6 21  1  0
  6 22  1  0
  8 23  1  0
  8 24  1  0
  9 25  1  0
  9 26  1  0
 10 27  1  6
 11 28  1  0
 11 29  1  0
 12 30  1  0
M  END
$$$$

     RDKit          3D

 30 30  0  0  0  0  0  0  0  0999 V2000
   -2.1341   -1.1720   -0.6849 C   0  0  0  0  0  0  0  0  0  0  0  0
   -1.6414   -0.2500    0.3690 C   0  0  2  0  0  0  0  0  0  0  0  0
   -2.5678   -0.3065    1.4404 O   0  0  0  0  0  0  0  0  0  0  0  0
   -1.6016    1.1988   -0.0484 C   0  0  0  0  0  0  0  0  0  0  0  0
   -2.9290    1.6286   -0.4690 N   0  0  0  0  0  0  0  0  0  0  0  0
   -0.3212   -0.6233    0.9712 C   0  0  0  0  0  0  0  0  0  0  0  0
    0.7866   -0.6738    0.2199 N   0  0  0  0  0  0  0  0  0  0  0  0
    1.2005   -1.5108   -0.7958 C   0  0  0  0  0  0  0  0  0  0  0  0
    2.5764   -0.8787   -0.6407 C   0  0  0  0  0  0  0  0  0  0  0  0
    1.7351    0.2832   -0.1004 C   0  0  2  0  0  0  0  0  0  0  0  0
    2.5130    0.9561    1.0039 C   0  0  0  0  0  0  0  0  0  0  0  0
    3.3863    1.8621    0.4199 O   0  0  0  0  0  0  0  0  0  0  0  0
   -1.4680   -2.0416   -0.8757 H   0  0  0  0  0  0  0  0  0  0  0  0
   -3.1298   -1.6277   -0.4576 H   0  0  0  0  0  0  0  0  0  0  0  0
   -2.2785   -0.6447   -1.6619 H   0  0  0  0  0  0  0  0  0  0  0  0
   -3.0987   -1.1393    1.3713 H   0  0  0  0  0  0  0  0  0  0  0  0
   -0.8415    1.3926   -0.8216 H   0  0  0  0  0  0  0  0  0  0  0  0
   -1.3568    1.7934    0.8612 H   0  0  0  0  0  0  0  0  0  0  0  0
   -3.3148    2.3967    0.1376 H   0  0  0  0  0  0  0  0  0  0  0  0
   -2.9013    2.0336   -1.4394 H   0  0  0  0  0  0  0  0  0  0  0  0
   -0.1854    0.0912    1.8402 H   0  0  0  0  0  0  0  0  0  0  0  0
   -0.5023   -1.6105    1.4988 H   0  0  0  0  0  0  0  0  0  0  0  0
    1.2328   -2.6022   -0.6235 H   0  0  0  0  0  0  0  0  0  0  0  0
    0.8223   -1.2216   -1.8219 H   0  0  0  0  0  0  0  0  0  0  0  0
    3.0939   -0.6592   -1.5911 H   0  0  0  0  0  0  0  0  0  0  0  0
    3.1857   -1.3721    0.1343 H   0  0  0  0  0  0  0  0  0  0  0  0
    1.5032    0.9463   -0.9679 H   0  0  0  0  0  0  0  0  0  0  0  0
    1.8969    1.5201    1.7089 H   0  0  0  0  0  0  0  0  0  0  0  0
    3.1566    0.2311    1.5630 H   0  0  0  0  0  0  0  0  0  0  0  0
    3.1830    2.0002   -0.5399 H   0  0  0  0  0  0  0  0  0  0  0  0
  1  2  1  0
  2  3  1  1
  2  4  1  0
  4  5  1  0
  2  6  1  0
  6  7  1  0
  7  8  1  0
  8  9  1  0
  9 10  1  0
 10 11  1  0
 11 12  1  0
 10  7  1  0
  1 13  1  0
  1 14  1  0
  1 15  1  0
  3 16  1  0
  4 17  1  0
  4 18  1  0
  5 19  1  0
  5 20  1  0
  6 21  1  0
  6 22  1  0
  8 23  1  0
  8 24  1  0
  9 25  1  0
  9 26  1  0
 10 27  1  6
 11 28  1  0
 11 29  1  0
 12 30  1  0
M  END
$$$$

     RDKit          3D

 30 30  0  0  0  0  0  0  0  0999 V2000
   -1.0818   -1.3789    1.1167 C   0  0  0  0  0  0  0  0  0  0  0  0
   -1.4308   -0.1399    0.3317 C   0  0  2  0  0  0  0  0  0  0  0  0
   -1.8395    0.8349    1.2217 O   0  0  0  0  0  0  0  0  0  0  0  0
   -2.7063   -0.4933   -0.4567 C   0  0  0  0  0  0  0  0  0  0  0  0
   -3.2258    0.6536   -1.1433 N   0  0  0  0  0  0  0  0  0  0  0  0
   -0.3647    0.2804   -0.6114 C   0  0  0  0  0  0  0  0  0  0  0  0
    0.8512    0.7174   -0.1967 N   0  0  0  0  0  0  0  0  0  0  0  0
    1.2066    1.8699    0.4744 C   0  0  0  0  0  0  0  0  0  0  0  0
    2.6455    1.3260    0.4732 C   0  0  0  0  0  0  0  0  0  0  0  0
    1.9004   -0.0200    0.3586 C   0  0  2  0  0  0  0  0  0  0  0  0
    2.5921   -0.9076   -0.6737 C   0  0  0  0  0  0  0  0  0  0  0  0
    1.7420   -1.8219   -1.2478 O   0  0  0  0  0  0  0  0  0  0  0  0
   -1.7775   -2.2283    0.8642 H   0  0  0  0  0  0  0  0  0  0  0  0
   -0.0806   -1.7578    0.8061 H   0  0  0  0  0  0  0  0  0  0  0  0
   -1.1547   -1.2314    2.2124 H   0  0  0  0  0  0  0  0  0  0  0  0
   -1.6328    0.6551    2.1619 H   0  0  0  0  0  0  0  0  0  0  0  0
   -3.4793   -0.9187    0.2091 H   0  0  0  0  0  0  0  0  0  0  0  0
   -2.4453   -1.2894   -1.2014 H   0  0  0  0  0  0  0  0  0  0  0  0
   -4.2545    0.8050   -0.9815 H   0  0  0  0  0  0  0  0  0  0  0  0
   -2.7599    1.4991   -0.7629 H   0  0  0  0  0  0  0  0  0  0  0  0
   -0.8349    1.0638   -1.2887 H   0  0  0  0  0  0  0  0  0  0  0  0
   -0.2335   -0.5852   -1.3360 H   0  0  0  0  0  0  0  0  0  0  0  0
    0.9248    2.0526    1.5128 H   0  0  0  0  0  0  0  0  0  0  0  0
    1.1013    2.7986   -0.1182 H   0  0  0  0  0  0  0  0  0  0  0  0
    3.1373    1.5857   -0.4755 H   0  0  0  0  0  0  0  0  0  0  0  0
    3.1988    1.4582    1.3976 H   0  0  0  0  0  0  0  0  0  0  0  0
    1.8255   -0.4568    1.3578 H   0  0  0  0  0  0  0  0  0  0  0  0
    3.0702   -0.3050   -1.4768 H   0  0  0  0  0  0  0  0  0  0  0  0
    3.4254   -1.4635   -0.1752 H   0  0  0  0  0  0  0  0  0  0  0  0
    1.6807   -2.6027   -0.6522 H   0  0  0  0  0  0  0  0  0  0  0  0
  1  2  1  0
  2  3  1  1
  2  4  1  0
  4  5  1  0
  2  6  1  0
  6  7  1  0
  7  8  1  0
  8  9  1  0
  9 10  1  0
 10 11  1  0
 11 12  1  0
 10  7  1  0
  1 13  1  0
  1 14  1  0
  1 15  1  0
  3 16  1  0
  4 17  1  0
  4 18  1  0
  5 19  1  0
  5 20  1  0
  6 21  1  0
  6 22  1  0
  8 23  1  0
  8 24  1  0
  9 25  1  0
  9 26  1  0
 10 27  1  1
 11 28  1  0
 11 29  1  0
 12 30  1  0
M  END
$$$$

     RDKit          3D

 30 30  0  0  0  0  0  0  0  0999 V2000
   -2.0298    0.2974   -0.9149 C   0  0  0  0  0  0  0  0  0  0  0  0
   -1.5311   -0.1178    0.4554 C   0  0  2  0  0  0  0  0  0  0  0  0
   -1.6298   -1.4970    0.5304 O   0  0  0  0  0  0  0  0  0  0  0  0
   -2.4035    0.5634    1.4847 C   0  0  0  0  0  0  0  0  0  0  0  0
   -3.7845    0.2992    1.4050 N   0  0  0  0  0  0  0  0  0  0  0  0
   -0.0810    0.3569    0.6305 C   0  0  0  0  0  0  0  0  0  0  0  0
    0.7549   -0.1742   -0.3694 N   0  0  0  0  0  0  0  0  0  0  0  0
    1.0623   -1.5913   -0.3514 C   0  0  0  0  0  0  0  0  0  0  0  0
    2.4844   -1.2466    0.1615 C   0  0  0  0  0  0  0  0  0  0  0  0
    2.1269    0.1114   -0.4538 C   0  0  2  0  0  0  0  0  0  0  0  0
    2.7525    1.2262    0.2711 C   0  0  0  0  0  0  0  0  0  0  0  0
    4.1384    1.2521   -0.0076 O   0  0  0  0  0  0  0  0  0  0  0  0
   -1.6831   -0.4036   -1.7161 H   0  0  0  0  0  0  0  0  0  0  0  0
   -1.5579    1.3094   -1.1093 H   0  0  0  0  0  0  0  0  0  0  0  0
   -3.1131    0.3694   -0.9843 H   0  0  0  0  0  0  0  0  0  0  0  0
   -2.4587   -1.8582    0.1917 H   0  0  0  0  0  0  0  0  0  0  0  0
   -2.0449    0.2113    2.4863 H   0  0  0  0  0  0  0  0  0  0  0  0
   -2.2552    1.6597    1.4897 H   0  0  0  0  0  0  0  0  0  0  0  0
   -4.2098   -0.2928    2.1119 H   0  0  0  0  0  0  0  0  0  0  0  0
   -4.3266    0.6185    0.6125 H   0  0  0  0  0  0  0  0  0  0  0  0
   -0.1123    1.4375    0.7191 H   0  0  0  0  0  0  0  0  0  0  0  0
    0.2291   -0.0813    1.6170 H   0  0  0  0  0  0  0  0  0  0  0  0
    1.1902   -1.9550   -1.3860 H   0  0  0  0  0  0  0  0  0  0  0  0
    0.5351   -2.2259    0.3540 H   0  0  0  0  0  0  0  0  0  0  0  0
    3.2783   -1.7957   -0.3485 H   0  0  0  0  0  0  0  0  0  0  0  0
    2.5470   -1.2496    1.2631 H   0  0  0  0  0  0  0  0  0  0  0  0
    2.4580    0.1198   -1.5344 H   0  0  0  0  0  0  0  0  0  0  0  0
    2.6350    1.2834    1.3465 H   0  0  0  0  0  0  0  0  0  0  0  0
    2.3756    2.2029   -0.1675 H   0  0  0  0  0  0  0  0  0  0  0  0
    4.6534    1.1709    0.8288 H   0  0  0  0  0  0  0  0  0  0  0  0
  1  2  1  0
  2  3  1  6
  2  4  1  0
  4  5  1  0
  2  6  1  0
  6  7  1  0
  7  8  1  0
  8  9  1  0
  9 10  1  0
 10 11  1  0
 11 12  1  0
 10  7  1  0
  1 13  1  0
  1 14  1  0
  1 15  1  0
  3 16  1  0
  4 17  1  0
  4 18  1  0
  5 19  1  0
  5 20  1  0
  6 21  1  0
  6 22  1  0
  8 23  1  0
  8 24  1  0
  9 25  1  0
  9 26  1  0
 10 27  1  6
 11 28  1  0
 11 29  1  0
 12 30  1  0
M  END
$$$$

     RDKit          3D

 30 30  0  0  0  0  0  0  0  0999 V2000
   -1.8253    0.7878    1.4361 C   0  0  0  0  0  0  0  0  0  0  0  0
   -1.5764    0.2923    0.0514 C   0  0  2  0  0  0  0  0  0  0  0  0
   -1.4938    1.3200   -0.8867 O   0  0  0  0  0  0  0  0  0  0  0  0
   -2.7465   -0.5977   -0.3694 C   0  0  0  0  0  0  0  0  0  0  0  0
   -3.9919    0.1474   -0.3985 N   0  0  0  0  0  0  0  0  0  0  0  0
   -0.3291   -0.5423   -0.0876 C   0  0  0  0  0  0  0  0  0  0  0  0
    0.8579    0.0929    0.1207 N   0  0  0  0  0  0  0  0  0  0  0  0
    1.4586    1.0747   -0.6544 C   0  0  0  0  0  0  0  0  0  0  0  0
    2.7165    0.8607    0.2071 C   0  0  0  0  0  0  0  0  0  0  0  0
    2.0495   -0.4770    0.5734 C   0  0  2  0  0  0  0  0  0  0  0  0
    2.5897   -1.6036   -0.2678 C   0  0  0  0  0  0  0  0  0  0  0  0
    3.7780   -2.0415    0.3427 O   0  0  0  0  0  0  0  0  0  0  0  0
   -2.9118    0.6459    1.7014 H   0  0  0  0  0  0  0  0  0  0  0  0
   -1.2233    0.2783    2.2000 H   0  0  0  0  0  0  0  0  0  0  0  0
   -1.6815    1.9052    1.5161 H   0  0  0  0  0  0  0  0  0  0  0  0
   -1.5569    2.1775   -0.4002 H   0  0  0  0  0  0  0  0  0  0  0  0
   -2.5458   -1.0821   -1.3381 H   0  0  0  0  0  0  0  0  0  0  0  0
   -2.8873   -1.4298    0.3688 H   0  0  0  0  0  0  0  0  0  0  0  0
   -3.7627    1.1485   -0.3908 H   0  0  0  0  0  0  0  0  0  0  0  0
   -4.5558   -0.1270   -1.2409 H   0  0  0  0  0  0  0  0  0  0  0  0
   -0.3726   -0.9988   -1.1110 H   0  0  0  0  0  0  0  0  0  0  0  0
   -0.4377   -1.4081    0.6188 H   0  0  0  0  0  0  0  0  0  0  0  0
    1.6822    0.8714   -1.7087 H   0  0  0  0  0  0  0  0  0  0  0  0
    1.0709    2.0822   -0.4847 H   0  0  0  0  0  0  0  0  0  0  0  0
    2.7899    1.5596    1.0526 H   0  0  0  0  0  0  0  0  0  0  0  0
    3.6450    0.7538   -0.3606 H   0  0  0  0  0  0  0  0  0  0  0  0
    2.1346   -0.7056    1.6468 H   0  0  0  0  0  0  0  0  0  0  0  0
    1.8700   -2.4273   -0.3618 H   0  0  0  0  0  0  0  0  0  0  0  0
    2.8445   -1.2701   -1.3147 H   0  0  0  0  0  0  0  0  0  0  0  0
    4.4113   -1.2874    0.4252 H   0  0  0  0  0  0  0  0  0  0  0  0
  1  2  1  0
  2  3  1  6
  2  4  1  0
  4  5  1  0
  2  6  1  0
  6  7  1  0
  7  8  1  0
  8  9  1  0
  9 10  1  0
 10 11  1  0
 11 12  1  0
 10  7  1  0
  1 13  1  0
  1 14  1  0
  1 15  1  0
  3 16  1  0
  4 17  1  0
  4 18  1  0
  5 19  1  0
  5 20  1  0
  6 21  1  0
  6 22  1  0
  8 23  1  0
  8 24  1  0
  9 25  1  0
  9 26  1  0
 10 27  1  1
 11 28  1  0
 11 29  1  0
 12 30  1  0
M  END
$$$$

     RDKit          3D

 30 30  0  0  0  0  0  0  0  0999 V2000
   -2.2627   -0.4771   -1.9641 C   0  0  0  0  0  0  0  0  0  0  0  0
   -1.5219   -0.5317   -0.6236 C   0  0  2  0  0  0  0  0  0  0  0  0
   -1.6167   -1.8218   -0.1519 O   0  0  0  0  0  0  0  0  0  0  0  0
   -2.2332    0.4422    0.2882 C   0  0  0  0  0  0  0  0  0  0  0  0
   -1.7173    0.4685    1.6199 N   0  0  0  0  0  0  0  0  0  0  0  0
   -0.1084   -0.0928   -0.8692 C   0  0  0  0  0  0  0  0  0  0  0  0
    0.7201   -0.1301    0.3042 N   0  0  0  0  0  0  0  0  0  0  0  0
    1.0398   -1.4018    0.8453 C   0  0  0  0  0  0  0  0  0  0  0  0
    2.4380   -0.8969    1.1121 C   0  0  0  0  0  0  0  0  0  0  0  0
    2.1205    0.0468   -0.0195 C   0  0  2  0  0  0  0  0  0  0  0  0
    2.5026    1.4888    0.2284 C   0  0  0  0  0  0  0  0  0  0  0  0
    1.6904    2.2637   -0.6025 O   0  0  0  0  0  0  0  0  0  0  0  0
   -3.1829   -1.0928   -1.9021 H   0  0  0  0  0  0  0  0  0  0  0  0
   -2.5318    0.5808   -2.2141 H   0  0  0  0  0  0  0  0  0  0  0  0
   -1.5583   -0.8043   -2.7466 H   0  0  0  0  0  0  0  0  0  0  0  0
   -2.4021   -1.8761    0.4448 H   0  0  0  0  0  0  0  0  0  0  0  0
   -2.0736    1.4586   -0.1467 H   0  0  0  0  0  0  0  0  0  0  0  0
   -3.3242    0.2412    0.2866 H   0  0  0  0  0  0  0  0  0  0  0  0
   -2.4177    0.2564    2.3614 H   0  0  0  0  0  0  0  0  0  0  0  0
   -1.1786    1.3552    1.8293 H   0  0  0  0  0  0  0  0  0  0  0  0
   -0.1255    0.9512   -1.2386 H   0  0  0  0  0  0  0  0  0  0  0  0
    0.3521   -0.7082   -1.6750 H   0  0  0  0  0  0  0  0  0  0  0  0
    1.0874   -2.2628    0.1515 H   0  0  0  0  0  0  0  0  0  0  0  0
    0.5178   -1.6678    1.7880 H   0  0  0  0  0  0  0  0  0  0  0  0
    3.2337   -1.6368    0.8915 H   0  0  0  0  0  0  0  0  0  0  0  0
    2.4918   -0.4491    2.1265 H   0  0  0  0  0  0  0  0  0  0  0  0
    2.4251   -0.3509   -1.0009 H   0  0  0  0  0  0  0  0  0  0  0  0
    2.2847    1.7219    1.3086 H   0  0  0  0  0  0  0  0  0  0  0  0
    3.5558    1.6946   -0.0102 H   0  0  0  0  0  0  0  0  0  0  0  0
    1.7953    3.2310   -0.4213 H   0  0  0  0  0  0  0  0  0  0  0  0
  1  2  1  0
  2  3  1  1
  2  4  1  0
  4  5  1  0
  2  6  1  0
  6  7  1  0
  7  8  1  0
  8  9  1  0
  9 10  1  0
 10 11  1  0
 11 12  1  0
 10  7  1  0
  1 13  1  0
  1 14  1  0
  1 15  1  0
  3 16  1  0
  4 17  1  0
  4 18  1  0
  5 19  1  0
  5 20  1  0
  6 21  1  0
  6 22  1  0
  8 23  1  0
  8 24  1  0
  9 25  1  0
  9 26  1  0
 10 27  1  6
 11 28  1  0
 11 29  1  0
 12 30  1  0
M  END
$$$$

     RDKit          3D

 30 30  0  0  0  0  0  0  0  0999 V2000
   -1.8865    0.8914   -0.4874 C   0  0  0  0  0  0  0  0  0  0  0  0
   -1.5143   -0.2707    0.4462 C   0  0  2  0  0  0  0  0  0  0  0  0
   -1.6035   -1.4488   -0.2749 O   0  0  0  0  0  0  0  0  0  0  0  0
   -2.4869   -0.3462    1.5988 C   0  0  0  0  0  0  0  0  0  0  0  0
   -3.8455   -0.4975    1.1150 N   0  0  0  0  0  0  0  0  0  0  0  0
   -0.0998    0.0075    0.8991 C   0  0  0  0  0  0  0  0  0  0  0  0
    0.7147    0.0941   -0.2417 N   0  0  0  0  0  0  0  0  0  0  0  0
    0.9846   -1.1208   -0.9457 C   0  0  0  0  0  0  0  0  0  0  0  0
    2.4725   -0.8784   -0.5970 C   0  0  0  0  0  0  0  0  0  0  0  0
    2.0297    0.5574   -0.2527 C   0  0  2  0  0  0  0  0  0  0  0  0
    2.7077    1.0296    0.9711 C   0  0  0  0  0  0  0  0  0  0  0  0
    4.0036    1.4192    0.6119 O   0  0  0  0  0  0  0  0  0  0  0  0
   -1.3505    0.6649   -1.4532 H   0  0  0  0  0  0  0  0  0  0  0  0
   -1.4603    1.8338   -0.0678 H   0  0  0  0  0  0  0  0  0  0  0  0
   -2.9494    0.9284   -0.7084 H   0  0  0  0  0  0  0  0  0  0  0  0
   -1.5315   -1.3005   -1.2485 H   0  0  0  0  0  0  0  0  0  0  0  0
   -2.3951    0.4546    2.3268 H   0  0  0  0  0  0  0  0  0  0  0  0
   -2.2959   -1.3154    2.1622 H   0  0  0  0  0  0  0  0  0  0  0  0
   -4.4282    0.3629    1.2388 H   0  0  0  0  0  0  0  0  0  0  0  0
   -3.9039   -0.9310    0.1867 H   0  0  0  0  0  0  0  0  0  0  0  0
    0.2890   -0.8605    1.5123 H   0  0  0  0  0  0  0  0  0  0  0  0
   -0.0591    0.8890    1.5609 H   0  0  0  0  0  0  0  0  0  0  0  0
    0.5937   -2.0161   -0.4078 H   0  0  0  0  0  0  0  0  0  0  0  0
    0.7639   -1.0730   -2.0110 H   0  0  0  0  0  0  0  0  0  0  0  0
    2.7535   -1.4853    0.2759 H   0  0  0  0  0  0  0  0  0  0  0  0
    3.1507   -0.9606   -1.4380 H   0  0  0  0  0  0  0  0  0  0  0  0
    2.2909    1.2111   -1.1260 H   0  0  0  0  0  0  0  0  0  0  0  0
    2.2270    1.9214    1.4336 H   0  0  0  0  0  0  0  0  0  0  0  0
    2.8489    0.2733    1.7703 H   0  0  0  0  0  0  0  0  0  0  0  0
    3.9803    1.9662   -0.2355 H   0  0  0  0  0  0  0  0  0  0  0  0
  1  2  1  0
  2  3  1  6
  2  4  1  0
  4  5  1  0
  2  6  1  0
  6  7  1  0
  7  8  1  0
  8  9  1  0
  9 10  1  0
 10 11  1  0
 11 12  1  0
 10  7  1  0
  1 13  1  0
  1 14  1  0
  1 15  1  0
  3 16  1  0
  4 17  1  0
  4 18  1  0
  5 19  1  0
  5 20  1  0
  6 21  1  0
  6 22  1  0
  8 23  1  0
  8 24  1  0
  9 25  1  0
  9 26  1  0
 10 27  1  6
 11 28  1  0
 11 29  1  0
 12 30  1  0
M  END
$$$$
