
     RDKit          3D

 23 23  0  0  0  0  0  0  0  0999 V2000
    3.2450   -0.8420    0.9604 C   0  0  0  0  0  0  0  0  0  0  0  0
    3.0904    0.5406    1.3260 N   0  0  0  0  0  0  0  0  0  0  0  0
    2.7162    1.4133    0.2687 C   0  0  0  0  0  0  0  0  0  0  0  0
    1.3378    1.2808   -0.2410 C   0  0  0  0  0  0  0  0  0  0  0  0
    0.9771    2.0310   -1.2276 O   0  0  0  0  0  0  0  0  0  0  0  0
    0.4186    0.3677    0.3205 N   0  0  0  0  0  0  0  0  0  0  0  0
   -0.9030    0.3103   -0.2491 C   0  0  0  0  0  0  0  0  0  0  0  0
   -1.4049    1.0199   -1.2710 N   0  0  0  0  0  0  0  0  0  0  0  0
   -2.6854    0.6461   -1.4766 C   0  0  0  0  0  0  0  0  0  0  0  0
   -2.9912   -0.3118   -0.5714 N   0  0  0  0  0  0  0  0  0  0  0  0
   -4.2805   -0.9776   -0.4680 C   0  0  0  0  0  0  0  0  0  0  0  0
   -1.9054   -0.5022    0.1599 N   0  0  0  0  0  0  0  0  0  0  0  0
    3.2533   -0.9222   -0.1645 H   0  0  0  0  0  0  0  0  0  0  0  0
    2.5433   -1.5405    1.4389 H   0  0  0  0  0  0  0  0  0  0  0  0
    4.2958   -1.1467    1.2725 H   0  0  0  0  0  0  0  0  0  0  0  0
    2.5185    0.6872    2.1891 H   0  0  0  0  0  0  0  0  0  0  0  0
    3.4675    1.3763   -0.5707 H   0  0  0  0  0  0  0  0  0  0  0  0
    2.8311    2.4607    0.6815 H   0  0  0  0  0  0  0  0  0  0  0  0
    0.6455   -0.2595    1.1119 H   0  0  0  0  0  0  0  0  0  0  0  0
   -3.3333    1.0503   -2.2356 H   0  0  0  0  0  0  0  0  0  0  0  0
   -4.1338   -1.8544    0.2062 H   0  0  0  0  0  0  0  0  0  0  0  0
   -4.6729   -1.2714   -1.4578 H   0  0  0  0  0  0  0  0  0  0  0  0
   -5.0298   -0.2864   -0.0023 H   0  0  0  0  0  0  0  0  0  0  0  0
  1  2  1  0
  2  3  1  0
  3  4  1  0
  4  5  2  0
  4  6  1  0
  6  7  1  0
  7  8  1  0
  8  9  2  0
  9 10  1  0
 10 11  1  0
 10 12  1  0
 12  7  2  0
  1 13  1  0
  1 14  1  0
  1 15  1  0
  2 16  1  0
  3 17  1  0
  3 18  1  0
  6 19  1  0
  9 20  1  0
 11 21  1  0
 11 22  1  0
 11 23  1  0
M  END
$$$$

     RDKit          3D

 23 23  0  0  0  0  0  0  0  0999 V2000
    3.7670    0.8001   -0.3255 C   0  0  0  0  0  0  0  0  0  0  0  0
    3.5233   -0.4819   -0.9156 N   0  0  0  0  0  0  0  0  0  0  0  0
    2.5206   -1.2273   -0.2371 C   0  0  0  0  0  0  0  0  0  0  0  0
    1.1501   -0.7024   -0.3602 C   0  0  0  0  0  0  0  0  0  0  0  0
    0.9694    0.3361   -1.0424 O   0  0  0  0  0  0  0  0  0  0  0  0
    0.0066   -1.2704    0.2271 N   0  0  0  0  0  0  0  0  0  0  0  0
   -1.3049   -0.7263    0.0786 C   0  0  0  0  0  0  0  0  0  0  0  0
   -2.4447   -1.2023    0.6013 N   0  0  0  0  0  0  0  0  0  0  0  0
   -3.4975   -0.4387    0.2572 C   0  0  0  0  0  0  0  0  0  0  0  0
   -2.9823    0.5527   -0.5124 N   0  0  0  0  0  0  0  0  0  0  0  0
   -3.7969    1.6096   -1.0988 C   0  0  0  0  0  0  0  0  0  0  0  0
   -1.6765    0.3717   -0.6122 N   0  0  0  0  0  0  0  0  0  0  0  0
    4.6409    1.2981   -0.7977 H   0  0  0  0  0  0  0  0  0  0  0  0
    3.9636    0.6195    0.7715 H   0  0  0  0  0  0  0  0  0  0  0  0
    2.8677    1.4225   -0.3565 H   0  0  0  0  0  0  0  0  0  0  0  0
    3.4334   -0.4765   -1.9413 H   0  0  0  0  0  0  0  0  0  0  0  0
    2.6091   -2.3047   -0.4951 H   0  0  0  0  0  0  0  0  0  0  0  0
    2.7370   -1.2045    0.8750 H   0  0  0  0  0  0  0  0  0  0  0  0
    0.1134   -2.1300    0.8007 H   0  0  0  0  0  0  0  0  0  0  0  0
   -4.5507   -0.5646    0.5249 H   0  0  0  0  0  0  0  0  0  0  0  0
   -3.5080    1.8461   -2.1326 H   0  0  0  0  0  0  0  0  0  0  0  0
   -4.8695    1.3446   -1.0669 H   0  0  0  0  0  0  0  0  0  0  0  0
   -3.6710    2.5288   -0.4746 H   0  0  0  0  0  0  0  0  0  0  0  0
  1  2  1  0
  2  3  1  0
  3  4  1  0
  4  5  2  0
  4  6  1  0
  6  7  1  0
  7  8  1  0
  8  9  2  0
  9 10  1  0
 10 11  1  0
 10 12  1  0
 12  7  2  0
  1 13  1  0
  1 14  1  0
  1 15  1  0
  2 16  1  0
  3 17  1  0
  3 18  1  0
  6 19  1  0
  9 20  1  0
 11 21  1  0
 11 22  1  0
 11 23  1  0
M  END
$$$$

     RDKit          3D

 23 23  0  0  0  0  0  0  0  0999 V2000
   -4.3923   -0.7566   -0.0978 C   0  0  0  0  0  0  0  0  0  0  0  0
   -2.9818   -0.4541    0.0809 N   0  0  0  0  0  0  0  0  0  0  0  0
   -2.2061   -0.7598   -1.0819 C   0  0  0  0  0  0  0  0  0  0  0  0
   -0.7854   -0.4360   -0.7882 C   0  0  0  0  0  0  0  0  0  0  0  0
    0.1056   -0.6156   -1.6677 O   0  0  0  0  0  0  0  0  0  0  0  0
   -0.3593    0.0742    0.4507 N   0  0  0  0  0  0  0  0  0  0  0  0
    1.0345    0.3681    0.6765 C   0  0  0  0  0  0  0  0  0  0  0  0
    1.5667    0.8554    1.8082 N   0  0  0  0  0  0  0  0  0  0  0  0
    2.8723    0.9871    1.6207 C   0  0  0  0  0  0  0  0  0  0  0  0
    3.1898    0.5876    0.3729 N   0  0  0  0  0  0  0  0  0  0  0  0
    4.5269    0.5870   -0.1941 C   0  0  0  0  0  0  0  0  0  0  0  0
    2.0503    0.2147   -0.1824 N   0  0  0  0  0  0  0  0  0  0  0  0
   -4.4652   -1.8648   -0.1697 H   0  0  0  0  0  0  0  0  0  0  0  0
   -4.7448   -0.2433   -1.0227 H   0  0  0  0  0  0  0  0  0  0  0  0
   -5.0037   -0.3420    0.7289 H   0  0  0  0  0  0  0  0  0  0  0  0
   -2.8471    0.5483    0.3696 H   0  0  0  0  0  0  0  0  0  0  0  0
   -2.5555   -0.2167   -1.9967 H   0  0  0  0  0  0  0  0  0  0  0  0
   -2.2836   -1.8452   -1.3119 H   0  0  0  0  0  0  0  0  0  0  0  0
   -1.0380    0.2452    1.2160 H   0  0  0  0  0  0  0  0  0  0  0  0
    3.5855    1.3494    2.3275 H   0  0  0  0  0  0  0  0  0  0  0  0
    4.9936   -0.4243   -0.1179 H   0  0  0  0  0  0  0  0  0  0  0  0
    4.5612    0.8865   -1.2424 H   0  0  0  0  0  0  0  0  0  0  0  0
    5.1763    1.2549    0.4214 H   0  0  0  0  0  0  0  0  0  0  0  0
  1  2  1  0
  2  3  1  0
  3  4  1  0
  4  5  2  0
  4  6  1  0
  6  7  1  0
  7  8  1  0
  8  9  2  0
  9 10  1  0
 10 11  1  0
 10 12  1  0
 12  7  2  0
  1 13  1  0
  1 14  1  0
  1 15  1  0
  2 16  1  0
  3 17  1  0
  3 18  1  0
  6 19  1  0
  9 20  1  0
 11 21  1  0
 11 22  1  0
 11 23  1  0
M  END
$$$$

     RDKit          3D

 23 23  0  0  0  0  0  0  0  0999 V2000
   -4.3564   -1.2823   -0.5123 C   0  0  0  0  0  0  0  0  0  0  0  0
   -2.9340   -1.1361   -0.4999 N   0  0  0  0  0  0  0  0  0  0  0  0
   -2.4674    0.0533    0.1676 C   0  0  0  0  0  0  0  0  0  0  0  0
   -1.0057    0.0953    0.1185 C   0  0  0  0  0  0  0  0  0  0  0  0
   -0.3757   -0.8306   -0.4512 O   0  0  0  0  0  0  0  0  0  0  0  0
   -0.2301    1.1504    0.6924 N   0  0  0  0  0  0  0  0  0  0  0  0
    1.2068    1.0885    0.5841 C   0  0  0  0  0  0  0  0  0  0  0  0
    2.0916    1.9823    1.0589 N   0  0  0  0  0  0  0  0  0  0  0  0
    3.3174    1.5365    0.7382 C   0  0  0  0  0  0  0  0  0  0  0  0
    3.2300    0.3741    0.0673 N   0  0  0  0  0  0  0  0  0  0  0  0
    4.3550   -0.3910   -0.4337 C   0  0  0  0  0  0  0  0  0  0  0  0
    1.9361    0.1286   -0.0102 N   0  0  0  0  0  0  0  0  0  0  0  0
   -4.8224   -0.9327   -1.4643 H   0  0  0  0  0  0  0  0  0  0  0  0
   -4.6054   -2.3428   -0.3163 H   0  0  0  0  0  0  0  0  0  0  0  0
   -4.7717   -0.6167    0.2829 H   0  0  0  0  0  0  0  0  0  0  0  0
   -2.3972   -1.9674   -0.2383 H   0  0  0  0  0  0  0  0  0  0  0  0
   -2.7580    0.0116    1.2528 H   0  0  0  0  0  0  0  0  0  0  0  0
   -2.9213    0.9757   -0.2238 H   0  0  0  0  0  0  0  0  0  0  0  0
   -0.7152    1.9163    1.1618 H   0  0  0  0  0  0  0  0  0  0  0  0
    4.2543    2.0349    0.9806 H   0  0  0  0  0  0  0  0  0  0  0  0
    5.2458   -0.3000    0.2138 H   0  0  0  0  0  0  0  0  0  0  0  0
    4.1317   -1.4755   -0.5108 H   0  0  0  0  0  0  0  0  0  0  0  0
    4.5917   -0.0724   -1.4903 H   0  0  0  0  0  0  0  0  0  0  0  0
  1  2  1  0
  2  3  1  0
  3  4  1  0
  4  5  2  0
  4  6  1  0
  6  7  1  0
  7  8  1  0
  8  9  2  0
  9 10  1  0
 10 11  1  0
 10 12  1  0
 12  7  2  0
  1 13  1  0
  1 14  1  0
  1 15  1  0
  2 16  1  0
  3 17  1  0
  3 18  1  0
  6 19  1  0
  9 20  1  0
 11 21  1  0
 11 22  1  0
 11 23  1  0
M  END
$$$$

     RDKit          3D

 23 23  0  0  0  0  0  0  0  0999 V2000
    3.4743    1.1799    0.6969 C   0  0  0  0  0  0  0  0  0  0  0  0
    3.3159   -0.2276    0.9655 N   0  0  0  0  0  0  0  0  0  0  0  0
    2.5299   -0.9052   -0.0365 C   0  0  0  0  0  0  0  0  0  0  0  0
    1.1082   -0.5049   -0.0345 C   0  0  0  0  0  0  0  0  0  0  0  0
    0.7008    0.3433    0.7868 O   0  0  0  0  0  0  0  0  0  0  0  0
    0.2190   -1.0932   -0.9688 N   0  0  0  0  0  0  0  0  0  0  0  0
   -1.1404   -0.7123   -0.9698 C   0  0  0  0  0  0  0  0  0  0  0  0
   -2.0839   -1.1830   -1.7907 N   0  0  0  0  0  0  0  0  0  0  0  0
   -3.2758   -0.6169   -1.5297 C   0  0  0  0  0  0  0  0  0  0  0  0
   -3.0314    0.2382   -0.4966 N   0  0  0  0  0  0  0  0  0  0  0  0
   -4.0091    1.0678    0.1283 C   0  0  0  0  0  0  0  0  0  0  0  0
   -1.7361    0.1734   -0.1649 N   0  0  0  0  0  0  0  0  0  0  0  0
    3.7691    1.3452   -0.3671 H   0  0  0  0  0  0  0  0  0  0  0  0
    2.5593    1.7510    0.9642 H   0  0  0  0  0  0  0  0  0  0  0  0
    4.3238    1.5237    1.3284 H   0  0  0  0  0  0  0  0  0  0  0  0
    4.2652   -0.6579    0.9747 H   0  0  0  0  0  0  0  0  0  0  0  0
    2.5509   -2.0027    0.2072 H   0  0  0  0  0  0  0  0  0  0  0  0
    2.9488   -0.8191   -1.0627 H   0  0  0  0  0  0  0  0  0  0  0  0
    0.5969   -1.8146   -1.6576 H   0  0  0  0  0  0  0  0  0  0  0  0
   -4.2208   -0.7820   -2.0095 H   0  0  0  0  0  0  0  0  0  0  0  0
   -3.5762    2.0196    0.4827 H   0  0  0  0  0  0  0  0  0  0  0  0
   -4.4038    0.4780    1.0057 H   0  0  0  0  0  0  0  0  0  0  0  0
   -4.8845    1.1995   -0.5410 H   0  0  0  0  0  0  0  0  0  0  0  0
  1  2  1  0
  2  3  1  0
  3  4  1  0
  4  5  2  0
  4  6  1  0
  6  7  1  0
  7  8  1  0
  8  9  2  0
  9 10  1  0
 10 11  1  0
 10 12  1  0
 12  7  2  0
  1 13  1  0
  1 14  1  0
  1 15  1  0
  2 16  1  0
  3 17  1  0
  3 18  1  0
  6 19  1  0
  9 20  1  0
 11 21  1  0
 11 22  1  0
 11 23  1  0
M  END
$$$$

     RDKit          3D

 23 23  0  0  0  0  0  0  0  0999 V2000
   -3.8880   -0.8610   -0.2441 C   0  0  0  0  0  0  0  0  0  0  0  0
   -3.6454    0.5226    0.0127 N   0  0  0  0  0  0  0  0  0  0  0  0
   -2.5649    0.7900    0.9151 C   0  0  0  0  0  0  0  0  0  0  0  0
   -1.2746    0.4348    0.2952 C   0  0  0  0  0  0  0  0  0  0  0  0
   -1.2570   -0.0363   -0.8762 O   0  0  0  0  0  0  0  0  0  0  0  0
   -0.0280    0.5918    0.9449 N   0  0  0  0  0  0  0  0  0  0  0  0
    1.1979    0.2343    0.2931 C   0  0  0  0  0  0  0  0  0  0  0  0
    1.3759   -0.2665   -0.9341 N   0  0  0  0  0  0  0  0  0  0  0  0
    2.6813   -0.4617   -1.1622 C   0  0  0  0  0  0  0  0  0  0  0  0
    3.3351   -0.0760   -0.0578 N   0  0  0  0  0  0  0  0  0  0  0  0
    4.7809   -0.1196    0.1198 C   0  0  0  0  0  0  0  0  0  0  0  0
    2.4267    0.3451    0.8213 N   0  0  0  0  0  0  0  0  0  0  0  0
   -3.2270   -1.5736    0.2726 H   0  0  0  0  0  0  0  0  0  0  0  0
   -4.9335   -1.0925    0.0537 H   0  0  0  0  0  0  0  0  0  0  0  0
   -3.7284   -1.0325   -1.3350 H   0  0  0  0  0  0  0  0  0  0  0  0
   -4.4887    1.0604    0.2861 H   0  0  0  0  0  0  0  0  0  0  0  0
   -2.6900    0.0635    1.7731 H   0  0  0  0  0  0  0  0  0  0  0  0
   -2.5934    1.8069    1.3471 H   0  0  0  0  0  0  0  0  0  0  0  0
   -0.0284    0.9762    1.9056 H   0  0  0  0  0  0  0  0  0  0  0  0
    3.1241   -0.8634   -2.0885 H   0  0  0  0  0  0  0  0  0  0  0  0
    5.0133   -1.1436    0.5020 H   0  0  0  0  0  0  0  0  0  0  0  0
    5.3273    0.0214   -0.8257 H   0  0  0  0  0  0  0  0  0  0  0  0
    5.0848    0.6796    0.8188 H   0  0  0  0  0  0  0  0  0  0  0  0
  1  2  1  0
  2  3  1  0
  3  4  1  0
  4  5  2  0
  4  6  1  0
  6  7  1  0
  7  8  1  0
  8  9  2  0
  9 10  1  0
 10 11  1  0
 10 12  1  0
 12  7  2  0
  1 13  1  0
  1 14  1  0
  1 15  1  0
  2 16  1  0
  3 17  1  0
  3 18  1  0
  6 19  1  0
  9 20  1  0
 11 21  1  0
 11 22  1  0
 11 23  1  0
M  END
$$$$

     RDKit          3D

 23 23  0  0  0  0  0  0  0  0999 V2000
   -3.2022    0.6038    1.0441 C   0  0  0  0  0  0  0  0  0  0  0  0
   -3.2582   -0.5073    0.1249 N   0  0  0  0  0  0  0  0  0  0  0  0
   -2.5457   -0.1794   -1.0615 C   0  0  0  0  0  0  0  0  0  0  0  0
   -1.0927   -0.1211   -0.7970 C   0  0  0  0  0  0  0  0  0  0  0  0
   -0.2617    0.1896   -1.7162 O   0  0  0  0  0  0  0  0  0  0  0  0
   -0.5460   -0.4051    0.4735 N   0  0  0  0  0  0  0  0  0  0  0  0
    0.8704   -0.3210    0.6221 C   0  0  0  0  0  0  0  0  0  0  0  0
    1.5008   -0.5688    1.7809 N   0  0  0  0  0  0  0  0  0  0  0  0
    2.8218   -0.4078    1.6028 C   0  0  0  0  0  0  0  0  0  0  0  0
    2.9767   -0.0528    0.2939 N   0  0  0  0  0  0  0  0  0  0  0  0
    4.2323    0.2260   -0.3567 C   0  0  0  0  0  0  0  0  0  0  0  0
    1.7958   -0.0019   -0.2926 N   0  0  0  0  0  0  0  0  0  0  0  0
   -3.1268    0.3275    2.1062 H   0  0  0  0  0  0  0  0  0  0  0  0
   -4.1253    1.2448    0.9626 H   0  0  0  0  0  0  0  0  0  0  0  0
   -2.3756    1.2737    0.7351 H   0  0  0  0  0  0  0  0  0  0  0  0
   -4.2269   -0.8588   -0.0302 H   0  0  0  0  0  0  0  0  0  0  0  0
   -2.8696    0.7729   -1.5318 H   0  0  0  0  0  0  0  0  0  0  0  0
   -2.7406   -0.9599   -1.8573 H   0  0  0  0  0  0  0  0  0  0  0  0
   -1.1385   -0.6697    1.2897 H   0  0  0  0  0  0  0  0  0  0  0  0
    3.6314   -0.5243    2.3178 H   0  0  0  0  0  0  0  0  0  0  0  0
    4.0791    0.2751   -1.4422 H   0  0  0  0  0  0  0  0  0  0  0  0
    4.6094    1.2082    0.0054 H   0  0  0  0  0  0  0  0  0  0  0  0
    4.9920   -0.5436   -0.0960 H   0  0  0  0  0  0  0  0  0  0  0  0
  1  2  1  0
  2  3  1  0
  3  4  1  0
  4  5  2  0
  4  6  1  0
  6  7  1  0
  7  8  1  0
  8  9  2  0
  9 10  1  0
 10 11  1  0
 10 12  1  0
 12  7  2  0
  1 13  1  0
  1 14  1  0
  1 15  1  0
  2 16  1  0
  3 17  1  0
  3 18  1  0
  6 19  1  0
  9 20  1  0
 11 21  1  0
 11 22  1  0
 11 23  1  0
M  END
$$$$

     RDKit          3D

 23 23  0  0  0  0  0  0  0  0999 V2000
    3.5049    0.4203    0.8404 C   0  0  0  0  0  0  0  0  0  0  0  0
    3.4487   -0.7528    0.0255 N   0  0  0  0  0  0  0  0  0  0  0  0
    2.5342   -0.5722   -1.0724 C   0  0  0  0  0  0  0  0  0  0  0  0
    1.1412   -0.4917   -0.5299 C   0  0  0  0  0  0  0  0  0  0  0  0
    0.9085   -0.5782    0.7011 O   0  0  0  0  0  0  0  0  0  0  0  0
    0.0450   -0.3129   -1.4068 N   0  0  0  0  0  0  0  0  0  0  0  0
   -1.2687   -0.2410   -0.8665 C   0  0  0  0  0  0  0  0  0  0  0  0
   -2.3811   -0.0706   -1.5940 N   0  0  0  0  0  0  0  0  0  0  0  0
   -3.4235   -0.0525   -0.7542 C   0  0  0  0  0  0  0  0  0  0  0  0
   -2.9357   -0.2141    0.4961 N   0  0  0  0  0  0  0  0  0  0  0  0
   -3.8021   -0.2454    1.6874 C   0  0  0  0  0  0  0  0  0  0  0  0
   -1.6489   -0.3253    0.4149 N   0  0  0  0  0  0  0  0  0  0  0  0
    3.3731    0.0901    1.9113 H   0  0  0  0  0  0  0  0  0  0  0  0
    4.4168    1.0301    0.7083 H   0  0  0  0  0  0  0  0  0  0  0  0
    2.6344    1.1034    0.6175 H   0  0  0  0  0  0  0  0  0  0  0  0
    4.3591   -1.1535   -0.2446 H   0  0  0  0  0  0  0  0  0  0  0  0
    2.6522   -1.3781   -1.8216 H   0  0  0  0  0  0  0  0  0  0  0  0
    2.7741    0.4120   -1.5695 H   0  0  0  0  0  0  0  0  0  0  0  0
    0.1756   -0.2353   -2.4263 H   0  0  0  0  0  0  0  0  0  0  0  0
   -4.4810    0.0674   -0.9955 H   0  0  0  0  0  0  0  0  0  0  0  0
   -4.5641    0.5659    1.5450 H   0  0  0  0  0  0  0  0  0  0  0  0
   -4.3069   -1.2094    1.8067 H   0  0  0  0  0  0  0  0  0  0  0  0
   -3.1560    0.0510    2.5272 H   0  0  0  0  0  0  0  0  0  0  0  0
  1  2  1  0
  2  3  1  0
  3  4  1  0
  4  5  2  0
  4  6  1  0
  6  7  1  0
  7  8  1  0
  8  9  2  0
  9 10  1  0
 10 11  1  0
 10 12  1  0
 12  7  2  0
  1 13  1  0
  1 14  1  0
  1 15  1  0
  2 16  1  0
  3 17  1  0
  3 18  1  0
  6 19  1  0
  9 20  1  0
 11 21  1  0
 11 22  1  0
 11 23  1  0
M  END
$$$$
