
     RDKit          3D

 30 30  0  0  0  0  0  0  0  0999 V2000
   -4.4763    0.1356   -0.1889 C   0  0  0  0  0  0  0  0  0  0  0  0
   -3.2078   -0.1421    0.5103 N   0  0  0  0  0  0  0  0  0  0  0  0
   -2.7525   -1.3988   -0.1748 C   0  0  0  0  0  0  0  0  0  0  0  0
   -2.2207    0.8254    0.1666 C   0  0  0  0  0  0  0  0  0  0  0  0
   -0.9973    0.5397    1.0387 C   0  0  0  0  0  0  0  0  0  0  0  0
    0.0233    1.3606    0.4701 O   0  0  0  0  0  0  0  0  0  0  0  0
    0.9318    0.5300    0.0504 N   0  0  0  0  0  0  0  0  0  0  0  0
    2.1997    0.9558   -0.3302 C   0  0  0  0  0  0  0  0  0  0  0  0
    3.0975   -0.2508   -0.6199 C   0  0  2  0  0  0  0  0  0  0  0  0
    3.2030   -1.0890    0.6749 C   0  0  0  0  0  0  0  0  0  0  0  0
    4.1133    0.0273    1.0479 C   0  0  0  0  0  0  0  0  0  0  0  0
    4.4398    0.7096    2.0129 O   0  0  0  0  0  0  0  0  0  0  0  0
    4.4723    0.0833   -0.3459 N   0  0  0  0  0  0  0  0  0  0  0  0
   -5.1176   -0.7259    0.0529 H   0  0  0  0  0  0  0  0  0  0  0  0
   -4.8695    1.1147    0.1598 H   0  0  0  0  0  0  0  0  0  0  0  0
   -4.2415    0.1217   -1.2700 H   0  0  0  0  0  0  0  0  0  0  0  0
   -3.4460   -2.1769    0.1240 H   0  0  0  0  0  0  0  0  0  0  0  0
   -1.6979   -1.6340    0.0667 H   0  0  0  0  0  0  0  0  0  0  0  0
   -2.8378   -1.1713   -1.2659 H   0  0  0  0  0  0  0  0  0  0  0  0
   -1.8455    0.6911   -0.8900 H   0  0  0  0  0  0  0  0  0  0  0  0
   -2.5016    1.8671    0.3509 H   0  0  0  0  0  0  0  0  0  0  0  0
   -0.7352   -0.4255    1.2997 H   0  0  0  0  0  0  0  0  0  0  0  0
   -1.2012    1.0998    2.0287 H   0  0  0  0  0  0  0  0  0  0  0  0
    0.6009   -0.4194   -0.2303 H   0  0  0  0  0  0  0  0  0  0  0  0
    2.2093    1.6111   -1.2107 H   0  0  0  0  0  0  0  0  0  0  0  0
    2.6547    1.5098    0.5210 H   0  0  0  0  0  0  0  0  0  0  0  0
    2.9027   -0.8101   -1.5095 H   0  0  0  0  0  0  0  0  0  0  0  0
    2.2633   -1.1061    1.2549 H   0  0  0  0  0  0  0  0  0  0  0  0
    3.6759   -2.0591    0.4923 H   0  0  0  0  0  0  0  0  0  0  0  0
    5.3605    0.2265   -0.8294 H   0  0  0  0  0  0  0  0  0  0  0  0
  1  2  1  0
  2  3  1  0
  2  4  1  0
  4  5  1  0
  5  6  1  0
  6  7  1  0
  7  8  1  0
  8  9  1  0
  9 10  1  0
 10 11  1  0
 11 12  2  0
 11 13  1  0
 13  9  1  0
  1 14  1  0
  1 15  1  0
  1 16  1  0
  3 17  1  0
  3 18  1  0
  3 19  1  0
  4 20  1  0
  4 21  1  0
  5 22  1  0
  5 23  1  0
  7 24  1  0
  8 25  1  0
  8 26  1  0
  9 27  1  6
 10 28  1  0
 10 29  1  0
 13 30  1  0
M  END
$$$$

     RDKit          3D

 30 30  0  0  0  0  0  0  0  0999 V2000
   -3.4767    0.8900    1.0691 C   0  0  0  0  0  0  0  0  0  0  0  0
   -3.3281    0.3170   -0.2331 N   0  0  0  0  0  0  0  0  0  0  0  0
   -3.4321   -1.1225   -0.2382 C   0  0  0  0  0  0  0  0  0  0  0  0
   -2.1842    0.8222   -0.9136 C   0  0  0  0  0  0  0  0  0  0  0  0
   -0.8563    0.3727   -0.3163 C   0  0  0  0  0  0  0  0  0  0  0  0
    0.1264    0.9458   -1.0829 O   0  0  0  0  0  0  0  0  0  0  0  0
    1.3849    0.6900   -0.7337 N   0  0  0  0  0  0  0  0  0  0  0  0
    1.4814   -0.6101   -0.1403 C   0  0  0  0  0  0  0  0  0  0  0  0
    2.9034   -0.9574    0.2605 C   0  0  2  0  0  0  0  0  0  0  0  0
    3.5086   -0.0142    1.2680 C   0  0  0  0  0  0  0  0  0  0  0  0
    4.1948    0.5810    0.0831 C   0  0  0  0  0  0  0  0  0  0  0  0
    4.8290    1.6508   -0.0759 O   0  0  0  0  0  0  0  0  0  0  0  0
    3.8407   -0.5225   -0.7408 N   0  0  0  0  0  0  0  0  0  0  0  0
   -2.5360    1.2714    1.5076 H   0  0  0  0  0  0  0  0  0  0  0  0
   -3.9622    0.1997    1.7893 H   0  0  0  0  0  0  0  0  0  0  0  0
   -4.1542    1.7672    0.9562 H   0  0  0  0  0  0  0  0  0  0  0  0
   -3.3903   -1.5589    0.7977 H   0  0  0  0  0  0  0  0  0  0  0  0
   -2.6072   -1.5618   -0.8326 H   0  0  0  0  0  0  0  0  0  0  0  0
   -4.3873   -1.4375   -0.7141 H   0  0  0  0  0  0  0  0  0  0  0  0
   -2.2232    0.4566   -1.9732 H   0  0  0  0  0  0  0  0  0  0  0  0
   -2.2340    1.9197   -0.9562 H   0  0  0  0  0  0  0  0  0  0  0  0
   -0.7669   -0.7375   -0.4568 H   0  0  0  0  0  0  0  0  0  0  0  0
   -0.8005    0.5928    0.7484 H   0  0  0  0  0  0  0  0  0  0  0  0
    2.0003    0.7747   -1.5655 H   0  0  0  0  0  0  0  0  0  0  0  0
    0.8147   -0.5946    0.7636 H   0  0  0  0  0  0  0  0  0  0  0  0
    1.1385   -1.4029   -0.8361 H   0  0  0  0  0  0  0  0  0  0  0  0
    2.9816   -2.0262    0.4965 H   0  0  0  0  0  0  0  0  0  0  0  0
    2.7844    0.6520    1.7791 H   0  0  0  0  0  0  0  0  0  0  0  0
    4.2186   -0.4938    1.9543 H   0  0  0  0  0  0  0  0  0  0  0  0
    4.1320   -0.8638   -1.6643 H   0  0  0  0  0  0  0  0  0  0  0  0
  1  2  1  0
  2  3  1  0
  2  4  1  0
  4  5  1  0
  5  6  1  0
  6  7  1  0
  7  8  1  0
  8  9  1  0
  9 10  1  0
 10 11  1  0
 11 12  2  0
 11 13  1  0
 13  9  1  0
  1 14  1  0
  1 15  1  0
  1 16  1  0
  3 17  1  0
  3 18  1  0
  3 19  1  0
  4 20  1  0
  4 21  1  0
  5 22  1  0
  5 23  1  0
  7 24  1  0
  8 25  1  0
  8 26  1  0
  9 27  1  1
 10 28  1  0
 10 29  1  0
 13 30  1  0
M  END
$$$$

     RDKit          3D

 30 30  0  0  0  0  0  0  0  0999 V2000
   -3.4545    1.3854   -0.1179 C   0  0  0  0  0  0  0  0  0  0  0  0
   -3.3834   -0.0015    0.0613 N   0  0  0  0  0  0  0  0  0  0  0  0
   -4.2383   -0.5937    1.0088 C   0  0  0  0  0  0  0  0  0  0  0  0
   -2.3336   -0.7307   -0.4530 C   0  0  0  0  0  0  0  0  0  0  0  0
   -1.0207   -0.3236    0.3092 C   0  0  0  0  0  0  0  0  0  0  0  0
   -0.0178   -1.0281   -0.1659 O   0  0  0  0  0  0  0  0  0  0  0  0
    1.1853   -0.9558    0.0656 N   0  0  0  0  0  0  0  0  0  0  0  0
    2.0130   -0.2650    0.9613 C   0  0  0  0  0  0  0  0  0  0  0  0
    2.9818    0.5849    0.1146 C   0  0  2  0  0  0  0  0  0  0  0  0
    3.7628   -0.2244   -0.9250 C   0  0  0  0  0  0  0  0  0  0  0  0
    4.8119    0.7841   -0.6216 C   0  0  0  0  0  0  0  0  0  0  0  0
    5.7571    1.3672   -1.1939 O   0  0  0  0  0  0  0  0  0  0  0  0
    4.2741    0.8410    0.7028 N   0  0  0  0  0  0  0  0  0  0  0  0
   -2.4545    1.8692    0.1017 H   0  0  0  0  0  0  0  0  0  0  0  0
   -3.7288    1.6089   -1.1706 H   0  0  0  0  0  0  0  0  0  0  0  0
   -4.2158    1.8629    0.5541 H   0  0  0  0  0  0  0  0  0  0  0  0
   -4.1206   -1.6972    1.0069 H   0  0  0  0  0  0  0  0  0  0  0  0
   -3.9852   -0.2170    2.0342 H   0  0  0  0  0  0  0  0  0  0  0  0
   -5.3041   -0.3113    0.8438 H   0  0  0  0  0  0  0  0  0  0  0  0
   -2.4494   -1.8295   -0.2768 H   0  0  0  0  0  0  0  0  0  0  0  0
   -2.1737   -0.5307   -1.5349 H   0  0  0  0  0  0  0  0  0  0  0  0
   -0.9214    0.7389    0.2631 H   0  0  0  0  0  0  0  0  0  0  0  0
   -1.2798   -0.6693    1.3748 H   0  0  0  0  0  0  0  0  0  0  0  0
    1.3726   -2.0595    0.4585 H   0  0  0  0  0  0  0  0  0  0  0  0
    2.6520   -1.0303    1.5307 H   0  0  0  0  0  0  0  0  0  0  0  0
    1.6127    0.3633    1.7482 H   0  0  0  0  0  0  0  0  0  0  0  0
    2.5307    1.4680   -0.3346 H   0  0  0  0  0  0  0  0  0  0  0  0
    3.3255   -0.1590   -1.9201 H   0  0  0  0  0  0  0  0  0  0  0  0
    4.0617   -1.2259   -0.5762 H   0  0  0  0  0  0  0  0  0  0  0  0
    4.7403    0.9787    1.6115 H   0  0  0  0  0  0  0  0  0  0  0  0
  1  2  1  0
  2  3  1  0
  2  4  1  0
  4  5  1  0
  5  6  1  0
  6  7  1  0
  7  8  1  0
  8  9  1  0
  9 10  1  0
 10 11  1  0
 11 12  2  0
 11 13  1  0
 13  9  1  0
  1 14  1  0
  1 15  1  0
  1 16  1  0
  3 17  1  0
  3 18  1  0
  3 19  1  0
  4 20  1  0
  4 21  1  0
  5 22  1  0
  5 23  1  0
  7 24  1  0
  8 25  1  0
  8 26  1  0
  9 27  1  6
 10 28  1  0
 10 29  1  0
 13 30  1  0
M  END
$$$$

     RDKit          3D

 30 30  0  0  0  0  0  0  0  0999 V2000
    3.2416   -1.0454   -0.6753 C   0  0  0  0  0  0  0  0  0  0  0  0
    2.9816    0.2601   -0.1982 N   0  0  0  0  0  0  0  0  0  0  0  0
    4.0868    1.1773   -0.3360 C   0  0  0  0  0  0  0  0  0  0  0  0
    2.2469    0.4053    1.0013 C   0  0  0  0  0  0  0  0  0  0  0  0
    0.8026   -0.0333    0.7501 C   0  0  0  0  0  0  0  0  0  0  0  0
    0.0354    0.0860    1.8808 O   0  0  0  0  0  0  0  0  0  0  0  0
   -1.2149   -0.3173    1.6337 N   0  0  0  0  0  0  0  0  0  0  0  0
   -1.7077   -0.0970    0.3148 C   0  0  0  0  0  0  0  0  0  0  0  0
   -3.1368   -0.6263    0.2559 C   0  0  2  0  0  0  0  0  0  0  0  0
   -3.7326   -0.4283   -1.1205 C   0  0  0  0  0  0  0  0  0  0  0  0
   -4.1482    0.8923   -0.5616 C   0  0  0  0  0  0  0  0  0  0  0  0
   -4.4145    2.0491   -0.9751 O   0  0  0  0  0  0  0  0  0  0  0  0
   -4.1301    0.3063    0.7246 N   0  0  0  0  0  0  0  0  0  0  0  0
    2.3735   -1.7034   -0.5120 H   0  0  0  0  0  0  0  0  0  0  0  0
    3.3534   -0.9857   -1.7957 H   0  0  0  0  0  0  0  0  0  0  0  0
    4.1171   -1.5426   -0.2115 H   0  0  0  0  0  0  0  0  0  0  0  0
    3.7693    2.1505    0.0816 H   0  0  0  0  0  0  0  0  0  0  0  0
    4.2089    1.3579   -1.4338 H   0  0  0  0  0  0  0  0  0  0  0  0
    5.0334    0.8137    0.0788 H   0  0  0  0  0  0  0  0  0  0  0  0
    2.6092   -0.2150    1.8463 H   0  0  0  0  0  0  0  0  0  0  0  0
    2.2899    1.4469    1.3291 H   0  0  0  0  0  0  0  0  0  0  0  0
    0.7225   -1.0703    0.3977 H   0  0  0  0  0  0  0  0  0  0  0  0
    0.3413    0.6247   -0.0296 H   0  0  0  0  0  0  0  0  0  0  0  0
   -1.4932   -1.2037    2.0767 H   0  0  0  0  0  0  0  0  0  0  0  0
   -1.1108   -0.7105   -0.4168 H   0  0  0  0  0  0  0  0  0  0  0  0
   -1.6509    0.9471   -0.0190 H   0  0  0  0  0  0  0  0  0  0  0  0
   -3.2314   -1.6531    0.6410 H   0  0  0  0  0  0  0  0  0  0  0  0
   -2.9851   -0.3555   -1.9397 H   0  0  0  0  0  0  0  0  0  0  0  0
   -4.6238   -1.0257   -1.3330 H   0  0  0  0  0  0  0  0  0  0  0  0
   -4.6337    0.4960    1.6045 H   0  0  0  0  0  0  0  0  0  0  0  0
  1  2  1  0
  2  3  1  0
  2  4  1  0
  4  5  1  0
  5  6  1  0
  6  7  1  0
  7  8  1  0
  8  9  1  0
  9 10  1  0
 10 11  1  0
 11 12  2  0
 11 13  1  0
 13  9  1  0
  1 14  1  0
  1 15  1  0
  1 16  1  0
  3 17  1  0
  3 18  1  0
  3 19  1  0
  4 20  1  0
  4 21  1  0
  5 22  1  0
  5 23  1  0
  7 24  1  0
  8 25  1  0
  8 26  1  0
  9 27  1  1
 10 28  1  0
 10 29  1  0
 13 30  1  0
M  END
$$$$

     RDKit          3D

 30 30  0  0  0  0  0  0  0  0999 V2000
    4.5489   -0.9382    0.7826 C   0  0  0  0  0  0  0  0  0  0  0  0
    3.5860   -0.2811   -0.1211 N   0  0  0  0  0  0  0  0  0  0  0  0
    3.8343    1.1500    0.0556 C   0  0  0  0  0  0  0  0  0  0  0  0
    2.2642   -0.6197    0.4052 C   0  0  0  0  0  0  0  0  0  0  0  0
    1.1681   -0.0937   -0.4858 C   0  0  0  0  0  0  0  0  0  0  0  0
   -0.0388   -0.4499    0.0812 O   0  0  0  0  0  0  0  0  0  0  0  0
   -1.0907   -0.0423   -0.6372 N   0  0  0  0  0  0  0  0  0  0  0  0
   -2.2673    0.0889    0.1847 C   0  0  0  0  0  0  0  0  0  0  0  0
   -3.4186    0.5341   -0.6954 C   0  0  2  0  0  0  0  0  0  0  0  0
   -4.7322    0.7045    0.0811 C   0  0  0  0  0  0  0  0  0  0  0  0
   -4.7153   -0.7910   -0.0085 C   0  0  0  0  0  0  0  0  0  0  0  0
   -5.0714   -1.7838    0.6342 O   0  0  0  0  0  0  0  0  0  0  0  0
   -4.0601   -0.6236   -1.2548 N   0  0  0  0  0  0  0  0  0  0  0  0
    4.1733   -0.8105    1.8175 H   0  0  0  0  0  0  0  0  0  0  0  0
    5.4884   -0.3472    0.7074 H   0  0  0  0  0  0  0  0  0  0  0  0
    4.6827   -2.0047    0.4872 H   0  0  0  0  0  0  0  0  0  0  0  0
    4.5836    1.4591   -0.6900 H   0  0  0  0  0  0  0  0  0  0  0  0
    2.9486    1.7738   -0.0636 H   0  0  0  0  0  0  0  0  0  0  0  0
    4.2634    1.3337    1.0828 H   0  0  0  0  0  0  0  0  0  0  0  0
    2.2094   -1.7168    0.4277 H   0  0  0  0  0  0  0  0  0  0  0  0
    2.1648   -0.2121    1.4141 H   0  0  0  0  0  0  0  0  0  0  0  0
    1.2566   -0.5781   -1.4808 H   0  0  0  0  0  0  0  0  0  0  0  0
    1.1735    0.9868   -0.6253 H   0  0  0  0  0  0  0  0  0  0  0  0
   -0.9291    0.7995   -1.2167 H   0  0  0  0  0  0  0  0  0  0  0  0
   -2.4854   -0.8696    0.6907 H   0  0  0  0  0  0  0  0  0  0  0  0
   -2.1077    0.8509    0.9863 H   0  0  0  0  0  0  0  0  0  0  0  0
   -3.2106    1.3741   -1.3669 H   0  0  0  0  0  0  0  0  0  0  0  0
   -4.6439    1.1383    1.0723 H   0  0  0  0  0  0  0  0  0  0  0  0
   -5.5050    1.1020   -0.6091 H   0  0  0  0  0  0  0  0  0  0  0  0
   -4.0698   -1.1331   -2.1451 H   0  0  0  0  0  0  0  0  0  0  0  0
  1  2  1  0
  2  3  1  0
  2  4  1  0
  4  5  1  0
  5  6  1  0
  6  7  1  0
  7  8  1  0
  8  9  1  0
  9 10  1  0
 10 11  1  0
 11 12  2  0
 11 13  1  0
 13  9  1  0
  1 14  1  0
  1 15  1  0
  1 16  1  0
  3 17  1  0
  3 18  1  0
  3 19  1  0
  4 20  1  0
  4 21  1  0
  5 22  1  0
  5 23  1  0
  7 24  1  0
  8 25  1  0
  8 26  1  0
  9 27  1  6
 10 28  1  0
 10 29  1  0
 13 30  1  0
M  END
$$$$

     RDKit          3D

 30 30  0  0  0  0  0  0  0  0999 V2000
    3.3601    1.5966   -0.8817 C   0  0  0  0  0  0  0  0  0  0  0  0
    2.9653    0.1594   -0.8164 N   0  0  0  0  0  0  0  0  0  0  0  0
    4.2116   -0.4710   -0.1676 C   0  0  0  0  0  0  0  0  0  0  0  0
    2.0862    0.1021    0.3004 C   0  0  0  0  0  0  0  0  0  0  0  0
    0.9716   -0.9280    0.3539 C   0  0  0  0  0  0  0  0  0  0  0  0
    0.1502   -0.5342   -0.7516 O   0  0  0  0  0  0  0  0  0  0  0  0
   -1.0974   -0.4211   -0.2857 N   0  0  0  0  0  0  0  0  0  0  0  0
   -2.1456   -1.2674   -0.4442 C   0  0  0  0  0  0  0  0  0  0  0  0
   -3.4905   -0.6265   -0.1656 C   0  0  2  0  0  0  0  0  0  0  0  0
   -3.6432    0.7448   -0.8241 C   0  0  0  0  0  0  0  0  0  0  0  0
   -3.8607    1.1466    0.6404 C   0  0  0  0  0  0  0  0  0  0  0  0
   -3.8966    2.3012    1.1426 O   0  0  0  0  0  0  0  0  0  0  0  0
   -4.0017   -0.2104    1.0212 N   0  0  0  0  0  0  0  0  0  0  0  0
    2.4006    2.1075   -1.2220 H   0  0  0  0  0  0  0  0  0  0  0  0
    4.1077    1.7848   -1.6647 H   0  0  0  0  0  0  0  0  0  0  0  0
    3.6241    1.9168    0.1135 H   0  0  0  0  0  0  0  0  0  0  0  0
    3.8828   -1.4409    0.1873 H   0  0  0  0  0  0  0  0  0  0  0  0
    5.0089   -0.4242   -0.8690 H   0  0  0  0  0  0  0  0  0  0  0  0
    4.3837    0.1844    0.7266 H   0  0  0  0  0  0  0  0  0  0  0  0
    2.5570    0.2163    1.2528 H   0  0  0  0  0  0  0  0  0  0  0  0
    1.3932    1.0911    0.2111 H   0  0  0  0  0  0  0  0  0  0  0  0
    0.6031   -1.2971    1.1732 H   0  0  0  0  0  0  0  0  0  0  0  0
    1.5727   -1.8360   -0.1904 H   0  0  0  0  0  0  0  0  0  0  0  0
   -1.0654    0.0988    0.6664 H   0  0  0  0  0  0  0  0  0  0  0  0
   -2.1586   -2.1151   -1.0682 H   0  0  0  0  0  0  0  0  0  0  0  0
   -2.0572   -1.8495    0.6773 H   0  0  0  0  0  0  0  0  0  0  0  0
   -4.2522   -1.3454   -0.7467 H   0  0  0  0  0  0  0  0  0  0  0  0
   -4.4617    0.9020   -1.4754 H   0  0  0  0  0  0  0  0  0  0  0  0
   -2.6913    1.1384   -1.2191 H   0  0  0  0  0  0  0  0  0  0  0  0
   -4.4568   -0.7242    1.8611 H   0  0  0  0  0  0  0  0  0  0  0  0
  1  2  1  0
  2  3  1  0
  2  4  1  0
  4  5  1  0
  5  6  1  0
  6  7  1  0
  7  8  1  0
  8  9  1  0
  9 10  1  0
 10 11  1  0
 11 12  2  0
 11 13  1  0
 13  9  1  0
  1 14  1  0
  1 15  1  0
  1 16  1  0
  3 17  1  0
  3 18  1  0
  3 19  1  0
  4 20  1  0
  4 21  1  0
  5 22  1  0
  5 23  1  0
  7 24  1  0
  8 25  1  0
  8 26  1  0
  9 27  1  6
 10 28  1  0
 10 29  1  0
 13 30  1  0
M  END
$$$$

     RDKit          3D

 30 30  0  0  0  0  0  0  0  0999 V2000
   -3.3421   -0.1417    1.1456 C   0  0  0  0  0  0  0  0  0  0  0  0
   -3.2573    0.2975   -0.1744 N   0  0  0  0  0  0  0  0  0  0  0  0
   -4.2594   -0.1232   -1.0389 C   0  0  0  0  0  0  0  0  0  0  0  0
   -2.2258    1.0664   -0.6771 C   0  0  0  0  0  0  0  0  0  0  0  0
   -0.8700    0.3956   -0.7875 C   0  0  0  0  0  0  0  0  0  0  0  0
   -0.4334   -0.0221    0.4387 O   0  0  0  0  0  0  0  0  0  0  0  0
    0.7718   -0.6178    0.3825 N   0  0  0  0  0  0  0  0  0  0  0  0
    1.8632    0.2781    0.6935 C   0  0  0  0  0  0  0  0  0  0  0  0
    3.1792   -0.4600    0.6017 C   0  0  2  0  0  0  0  0  0  0  0  0
    4.3569    0.4464    0.9216 C   0  0  0  0  0  0  0  0  0  0  0  0
    4.6207    0.3754   -0.5389 C   0  0  0  0  0  0  0  0  0  0  0  0
    5.4517    0.9326   -1.2818 O   0  0  0  0  0  0  0  0  0  0  0  0
    3.5892   -0.5531   -0.7903 N   0  0  0  0  0  0  0  0  0  0  0  0
   -2.3655   -0.2414    1.6866 H   0  0  0  0  0  0  0  0  0  0  0  0
   -3.7437   -1.1953    1.1460 H   0  0  0  0  0  0  0  0  0  0  0  0
   -3.9901    0.5076    1.7950 H   0  0  0  0  0  0  0  0  0  0  0  0
   -4.9155   -0.9190   -0.5789 H   0  0  0  0  0  0  0  0  0  0  0  0
   -3.9060   -0.5220   -2.0147 H   0  0  0  0  0  0  0  0  0  0  0  0
   -4.9481    0.7306   -1.3204 H   0  0  0  0  0  0  0  0  0  0  0  0
   -2.0563    2.0012   -0.0548 H   0  0  0  0  0  0  0  0  0  0  0  0
   -2.4648    1.4400   -1.7048 H   0  0  0  0  0  0  0  0  0  0  0  0
   -0.2030    1.1405   -1.2850 H   0  0  0  0  0  0  0  0  0  0  0  0
   -0.9313   -0.4737   -1.4855 H   0  0  0  0  0  0  0  0  0  0  0  0
    0.8344   -1.5307    0.8284 H   0  0  0  0  0  0  0  0  0  0  0  0
    1.7350    0.6042    1.7402 H   0  0  0  0  0  0  0  0  0  0  0  0
    1.8479    1.1521    0.0315 H   0  0  0  0  0  0  0  0  0  0  0  0
    3.1688   -1.4055    1.1503 H   0  0  0  0  0  0  0  0  0  0  0  0
    5.1462   -0.0858    1.5010 H   0  0  0  0  0  0  0  0  0  0  0  0
    4.0900    1.4595    1.2880 H   0  0  0  0  0  0  0  0  0  0  0  0
    3.2573   -1.0825   -1.6177 H   0  0  0  0  0  0  0  0  0  0  0  0
  1  2  1  0
  2  3  1  0
  2  4  1  0
  4  5  1  0
  5  6  1  0
  6  7  1  0
  7  8  1  0
  8  9  1  0
  9 10  1  0
 10 11  1  0
 11 12  2  0
 11 13  1  0
 13  9  1  0
  1 14  1  0
  1 15  1  0
  1 16  1  0
  3 17  1  0
  3 18  1  0
  3 19  1  0
  4 20  1  0
  4 21  1  0
  5 22  1  0
  5 23  1  0
  7 24  1  0
  8 25  1  0
  8 26  1  0
  9 27  1  1
 10 28  1  0
 10 29  1  0
 13 30  1  0
M  END
$$$$

     RDKit          3D

 30 30  0  0  0  0  0  0  0  0999 V2000
   -3.0378   -0.1209    1.3319 C   0  0  0  0  0  0  0  0  0  0  0  0
   -3.3330   -0.3160   -0.0406 N   0  0  0  0  0  0  0  0  0  0  0  0
   -3.9893    0.7898   -0.6876 C   0  0  0  0  0  0  0  0  0  0  0  0
   -2.4050   -1.0145   -0.8407 C   0  0  0  0  0  0  0  0  0  0  0  0
   -1.1030   -0.3390   -1.1294 C   0  0  0  0  0  0  0  0  0  0  0  0
   -0.4375   -0.0836    0.0528 O   0  0  0  0  0  0  0  0  0  0  0  0
    0.7455    0.5026   -0.2705 N   0  0  0  0  0  0  0  0  0  0  0  0
    1.8523   -0.3366    0.1997 C   0  0  0  0  0  0  0  0  0  0  0  0
    3.1369    0.3213   -0.2136 C   0  0  2  0  0  0  0  0  0  0  0  0
    4.3828   -0.4589    0.2069 C   0  0  0  0  0  0  0  0  0  0  0  0
    4.1400    0.2202    1.4989 C   0  0  0  0  0  0  0  0  0  0  0  0
    4.3230    0.0172    2.7200 O   0  0  0  0  0  0  0  0  0  0  0  0
    3.5677    1.2942    0.7748 N   0  0  0  0  0  0  0  0  0  0  0  0
   -3.7272   -0.8226    1.9034 H   0  0  0  0  0  0  0  0  0  0  0  0
   -2.0348   -0.3875    1.6754 H   0  0  0  0  0  0  0  0  0  0  0  0
   -3.3032    0.8855    1.7302 H   0  0  0  0  0  0  0  0  0  0  0  0
   -3.5341    0.9276   -1.6924 H   0  0  0  0  0  0  0  0  0  0  0  0
   -5.0672    0.5473   -0.8090 H   0  0  0  0  0  0  0  0  0  0  0  0
   -3.9252    1.7451   -0.1260 H   0  0  0  0  0  0  0  0  0  0  0  0
   -2.9027   -1.2082   -1.8380 H   0  0  0  0  0  0  0  0  0  0  0  0
   -2.2568   -2.0310   -0.4122 H   0  0  0  0  0  0  0  0  0  0  0  0
   -1.2709    0.6392   -1.6616 H   0  0  0  0  0  0  0  0  0  0  0  0
   -0.4756   -0.9871   -1.7963 H   0  0  0  0  0  0  0  0  0  0  0  0
    0.8915    0.6018   -1.2939 H   0  0  0  0  0  0  0  0  0  0  0  0
    1.7867   -1.3734   -0.1653 H   0  0  0  0  0  0  0  0  0  0  0  0
    1.7984   -0.3760    1.3230 H   0  0  0  0  0  0  0  0  0  0  0  0
    3.1686    0.6747   -1.2656 H   0  0  0  0  0  0  0  0  0  0  0  0
    5.2499   -0.0758   -0.3243 H   0  0  0  0  0  0  0  0  0  0  0  0
    4.2329   -1.5584    0.1871 H   0  0  0  0  0  0  0  0  0  0  0  0
    3.5270    2.3232    0.9628 H   0  0  0  0  0  0  0  0  0  0  0  0
  1  2  1  0
  2  3  1  0
  2  4  1  0
  4  5  1  0
  5  6  1  0
  6  7  1  0
  7  8  1  0
  8  9  1  0
  9 10  1  0
 10 11  1  0
 11 12  2  0
 11 13  1  0
 13  9  1  0
  1 14  1  0
  1 15  1  0
  1 16  1  0
  3 17  1  0
  3 18  1  0
  3 19  1  0
  4 20  1  0
  4 21  1  0
  5 22  1  0
  5 23  1  0
  7 24  1  0
  8 25  1  0
  8 26  1  0
  9 27  1  6
 10 28  1  0
 10 29  1  0
 13 30  1  0
M  END
$$$$
