
     RDKit          3D

 19 20  0  0  0  0  0  0  0  0999 V2000
    3.5644   -0.8537    0.3481 C   0  0  0  0  0  0  0  0  0  0  0  0
    2.3123   -0.1350    0.0661 N   0  0  0  0  0  0  0  0  0  0  0  0
    2.1924    1.1061   -0.4119 C   0  0  0  0  0  0  0  0  0  0  0  0
    0.8759    1.3781   -0.5207 N   0  0  0  0  0  0  0  0  0  0  0  0
    0.1643    0.3139   -0.1137 C   0  0  0  0  0  0  0  0  0  0  0  0
   -1.2565    0.1942   -0.0698 N   0  0  0  0  0  0  0  0  0  0  0  0
   -2.2203    1.2314    0.0573 C   0  0  0  0  0  0  0  0  0  0  0  0
   -1.9500    2.4554    0.1537 O   0  0  0  0  0  0  0  0  0  0  0  0
   -3.5310    0.6552    0.0575 N   0  0  0  0  0  0  0  0  0  0  0  0
   -3.4252   -0.7630   -0.0700 C   0  0  0  0  0  0  0  0  0  0  0  0
   -4.3672   -1.6199   -0.1090 O   0  0  0  0  0  0  0  0  0  0  0  0
   -1.9889   -1.0341   -0.1485 C   0  0  0  0  0  0  0  0  0  0  0  0
   -1.4584   -2.1766   -0.2676 O   0  0  0  0  0  0  0  0  0  0  0  0
    1.0885   -0.5996    0.2408 N   0  0  0  0  0  0  0  0  0  0  0  0
    4.3515   -0.5576   -0.3738 H   0  0  0  0  0  0  0  0  0  0  0  0
    3.3217   -1.9515    0.2972 H   0  0  0  0  0  0  0  0  0  0  0  0
    3.8202   -0.5935    1.4027 H   0  0  0  0  0  0  0  0  0  0  0  0
    2.9711    1.8047   -0.6761 H   0  0  0  0  0  0  0  0  0  0  0  0
   -4.4647    1.1454    0.1377 H   0  0  0  0  0  0  0  0  0  0  0  0
  1  2  1  0
  2  3  1  0
  3  4  2  0
  4  5  1  0
  5  6  1  0
  6  7  1  0
  7  8  2  0
  7  9  1  0
  9 10  1  0
 10 11  2  0
 10 12  1  0
 12 13  2  0
  5 14  2  0
 14  2  1  0
 12  6  1  0
  1 15  1  0
  1 16  1  0
  1 17  1  0
  3 18  1  0
  9 19  1  0
M  END
$$$$

     RDKit          3D

 19 20  0  0  0  0  0  0  0  0999 V2000
    3.6129    0.3898    0.6262 C   0  0  0  0  0  0  0  0  0  0  0  0
    2.3071    0.1239    0.0463 N   0  0  0  0  0  0  0  0  0  0  0  0
    2.1460   -0.3444   -1.2202 C   0  0  0  0  0  0  0  0  0  0  0  0
    0.8057   -0.4767   -1.4208 N   0  0  0  0  0  0  0  0  0  0  0  0
    0.1413   -0.1016   -0.3111 C   0  0  0  0  0  0  0  0  0  0  0  0
   -1.2742   -0.0839   -0.0905 N   0  0  0  0  0  0  0  0  0  0  0  0
   -1.9870    0.7302    0.8327 C   0  0  0  0  0  0  0  0  0  0  0  0
   -1.5283    1.5771    1.6208 O   0  0  0  0  0  0  0  0  0  0  0  0
   -3.3919    0.4508    0.7533 N   0  0  0  0  0  0  0  0  0  0  0  0
   -3.5844   -0.5499   -0.2279 C   0  0  0  0  0  0  0  0  0  0  0  0
   -4.7112   -1.0410   -0.5610 O   0  0  0  0  0  0  0  0  0  0  0  0
   -2.2589   -0.8746   -0.7460 C   0  0  0  0  0  0  0  0  0  0  0  0
   -2.0017   -1.7228   -1.6387 O   0  0  0  0  0  0  0  0  0  0  0  0
    1.1147    0.2566    0.5532 N   0  0  0  0  0  0  0  0  0  0  0  0
    3.7256    1.4532    0.9141 H   0  0  0  0  0  0  0  0  0  0  0  0
    4.4249    0.0903   -0.0386 H   0  0  0  0  0  0  0  0  0  0  0  0
    3.7231   -0.1873    1.5596 H   0  0  0  0  0  0  0  0  0  0  0  0
    2.9014   -0.5793   -1.9575 H   0  0  0  0  0  0  0  0  0  0  0  0
   -4.1650    0.8895    1.3061 H   0  0  0  0  0  0  0  0  0  0  0  0
  1  2  1  0
  2  3  1  0
  3  4  2  0
  4  5  1  0
  5  6  1  0
  6  7  1  0
  7  8  2  0
  7  9  1  0
  9 10  1  0
 10 11  2  0
 10 12  1  0
 12 13  2  0
  5 14  2  0
 14  2  1  0
 12  6  1  0
  1 15  1  0
  1 16  1  0
  1 17  1  0
  3 18  1  0
  9 19  1  0
M  END
$$$$

     RDKit          3D

 19 20  0  0  0  0  0  0  0  0999 V2000
    3.5787    0.4554    0.6496 C   0  0  0  0  0  0  0  0  0  0  0  0
    2.2898    0.2851    0.0047 N   0  0  0  0  0  0  0  0  0  0  0  0
    2.1025    0.2669   -1.3233 C   0  0  0  0  0  0  0  0  0  0  0  0
    0.7932    0.0927   -1.5127 N   0  0  0  0  0  0  0  0  0  0  0  0
    0.1444    0.0001   -0.3224 C   0  0  0  0  0  0  0  0  0  0  0  0
   -1.2584   -0.1847   -0.1670 N   0  0  0  0  0  0  0  0  0  0  0  0
   -2.1581    0.6706    0.5419 C   0  0  0  0  0  0  0  0  0  0  0  0
   -1.7890    1.7324    1.1390 O   0  0  0  0  0  0  0  0  0  0  0  0
   -3.4851    0.1745    0.4818 N   0  0  0  0  0  0  0  0  0  0  0  0
   -3.4631   -1.0255   -0.2773 C   0  0  0  0  0  0  0  0  0  0  0  0
   -4.4499   -1.7543   -0.5489 O   0  0  0  0  0  0  0  0  0  0  0  0
   -2.0736   -1.2387   -0.6750 C   0  0  0  0  0  0  0  0  0  0  0  0
   -1.6052   -2.1882   -1.3607 O   0  0  0  0  0  0  0  0  0  0  0  0
    1.1032    0.1233    0.6166 N   0  0  0  0  0  0  0  0  0  0  0  0
    4.2147   -0.3677    0.2988 H   0  0  0  0  0  0  0  0  0  0  0  0
    3.9963    1.4408    0.2894 H   0  0  0  0  0  0  0  0  0  0  0  0
    3.5049    0.5349    1.7392 H   0  0  0  0  0  0  0  0  0  0  0  0
    2.9083    0.3782   -2.0667 H   0  0  0  0  0  0  0  0  0  0  0  0
   -4.3538    0.6043    0.9181 H   0  0  0  0  0  0  0  0  0  0  0  0
  1  2  1  0
  2  3  1  0
  3  4  2  0
  4  5  1  0
  5  6  1  0
  6  7  1  0
  7  8  2  0
  7  9  1  0
  9 10  1  0
 10 11  2  0
 10 12  1  0
 12 13  2  0
  5 14  2  0
 14  2  1  0
 12  6  1  0
  1 15  1  0
  1 16  1  0
  1 17  1  0
  3 18  1  0
  9 19  1  0
M  END
$$$$

     RDKit          3D

 19 20  0  0  0  0  0  0  0  0999 V2000
    3.5896    0.3991    0.5595 C   0  0  0  0  0  0  0  0  0  0  0  0
    2.2945   -0.0473    0.0258 N   0  0  0  0  0  0  0  0  0  0  0  0
    2.0729   -0.9302   -0.9671 C   0  0  0  0  0  0  0  0  0  0  0  0
    0.7510   -1.0603   -1.1481 N   0  0  0  0  0  0  0  0  0  0  0  0
    0.1154   -0.2577   -0.2682 C   0  0  0  0  0  0  0  0  0  0  0  0
   -1.2894   -0.0720   -0.1010 N   0  0  0  0  0  0  0  0  0  0  0  0
   -2.3154   -1.0320   -0.3008 C   0  0  0  0  0  0  0  0  0  0  0  0
   -2.1806   -2.2493   -0.6695 O   0  0  0  0  0  0  0  0  0  0  0  0
   -3.5609   -0.4013   -0.0156 N   0  0  0  0  0  0  0  0  0  0  0  0
   -3.3365    0.9536    0.3643 C   0  0  0  0  0  0  0  0  0  0  0  0
   -4.1897    1.8194    0.6871 O   0  0  0  0  0  0  0  0  0  0  0  0
   -1.8916    1.1503    0.3061 C   0  0  0  0  0  0  0  0  0  0  0  0
   -1.3270    2.2486    0.5830 O   0  0  0  0  0  0  0  0  0  0  0  0
    1.1133    0.3449    0.4326 N   0  0  0  0  0  0  0  0  0  0  0  0
    4.3339   -0.3991    0.3843 H   0  0  0  0  0  0  0  0  0  0  0  0
    3.5138    0.5277    1.6642 H   0  0  0  0  0  0  0  0  0  0  0  0
    3.9444    1.3104    0.0482 H   0  0  0  0  0  0  0  0  0  0  0  0
    2.8683   -1.4282   -1.5046 H   0  0  0  0  0  0  0  0  0  0  0  0
   -4.5063   -0.8766   -0.0801 H   0  0  0  0  0  0  0  0  0  0  0  0
  1  2  1  0
  2  3  1  0
  3  4  2  0
  4  5  1  0
  5  6  1  0
  6  7  1  0
  7  8  2  0
  7  9  1  0
  9 10  1  0
 10 11  2  0
 10 12  1  0
 12 13  2  0
  5 14  2  0
 14  2  1  0
 12  6  1  0
  1 15  1  0
  1 16  1  0
  1 17  1  0
  3 18  1  0
  9 19  1  0
M  END
$$$$

     RDKit          3D

 19 20  0  0  0  0  0  0  0  0999 V2000
   -3.5951    0.3567   -0.5031 C   0  0  0  0  0  0  0  0  0  0  0  0
   -2.2959   -0.1307   -0.0278 N   0  0  0  0  0  0  0  0  0  0  0  0
   -2.0623   -1.1522    0.8125 C   0  0  0  0  0  0  0  0  0  0  0  0
   -0.7375   -1.2523    0.9781 N   0  0  0  0  0  0  0  0  0  0  0  0
   -0.1446   -0.3002    0.2471 C   0  0  0  0  0  0  0  0  0  0  0  0
    1.2634   -0.0125    0.1079 N   0  0  0  0  0  0  0  0  0  0  0  0
    2.1161    0.6146    1.0525 C   0  0  0  0  0  0  0  0  0  0  0  0
    1.7356    1.0158    2.1764 O   0  0  0  0  0  0  0  0  0  0  0  0
    3.4434    0.7088    0.5266 N   0  0  0  0  0  0  0  0  0  0  0  0
    3.4693    0.1366   -0.7797 C   0  0  0  0  0  0  0  0  0  0  0  0
    4.4578    0.0319   -1.5614 O   0  0  0  0  0  0  0  0  0  0  0  0
    2.0867   -0.3066   -1.0141 C   0  0  0  0  0  0  0  0  0  0  0  0
    1.7107   -0.8666   -2.0764 O   0  0  0  0  0  0  0  0  0  0  0  0
   -1.1411    0.3690   -0.3582 N   0  0  0  0  0  0  0  0  0  0  0  0
   -4.1158    0.9389    0.2870 H   0  0  0  0  0  0  0  0  0  0  0  0
   -3.4268    1.0149   -1.3817 H   0  0  0  0  0  0  0  0  0  0  0  0
   -4.2486   -0.5002   -0.7660 H   0  0  0  0  0  0  0  0  0  0  0  0
   -2.7838   -1.7864    1.2781 H   0  0  0  0  0  0  0  0  0  0  0  0
    4.2685    1.1205    1.0021 H   0  0  0  0  0  0  0  0  0  0  0  0
  1  2  1  0
  2  3  1  0
  3  4  2  0
  4  5  1  0
  5  6  1  0
  6  7  1  0
  7  8  2  0
  7  9  1  0
  9 10  1  0
 10 11  2  0
 10 12  1  0
 12 13  2  0
  5 14  2  0
 14  2  1  0
 12  6  1  0
  1 15  1  0
  1 16  1  0
  1 17  1  0
  3 18  1  0
  9 19  1  0
M  END
$$$$

     RDKit          3D

 19 20  0  0  0  0  0  0  0  0999 V2000
   -3.5545    0.5434    0.8012 C   0  0  0  0  0  0  0  0  0  0  0  0
   -2.2961    0.0355    0.2511 N   0  0  0  0  0  0  0  0  0  0  0  0
   -2.1616   -0.9534   -0.6508 C   0  0  0  0  0  0  0  0  0  0  0  0
   -0.8427   -1.1458   -0.9202 N   0  0  0  0  0  0  0  0  0  0  0  0
   -0.1541   -0.2632   -0.1741 C   0  0  0  0  0  0  0  0  0  0  0  0
    1.2703   -0.1364   -0.1630 N   0  0  0  0  0  0  0  0  0  0  0  0
    1.9769    1.0492   -0.5510 C   0  0  0  0  0  0  0  0  0  0  0  0
    1.4045    2.1152   -0.9476 O   0  0  0  0  0  0  0  0  0  0  0  0
    3.3797    0.8391   -0.4219 N   0  0  0  0  0  0  0  0  0  0  0  0
    3.5777   -0.4775    0.0477 C   0  0  0  0  0  0  0  0  0  0  0  0
    4.7215   -0.9674    0.2646 O   0  0  0  0  0  0  0  0  0  0  0  0
    2.2627   -1.0712    0.2040 C   0  0  0  0  0  0  0  0  0  0  0  0
    2.0377   -2.2400    0.6051 O   0  0  0  0  0  0  0  0  0  0  0  0
   -1.0669    0.4331    0.5203 N   0  0  0  0  0  0  0  0  0  0  0  0
   -4.0235    1.2890    0.1159 H   0  0  0  0  0  0  0  0  0  0  0  0
   -4.2653   -0.2758    1.0188 H   0  0  0  0  0  0  0  0  0  0  0  0
   -3.3270    1.1281    1.7389 H   0  0  0  0  0  0  0  0  0  0  0  0
   -3.0071   -1.4972   -1.0794 H   0  0  0  0  0  0  0  0  0  0  0  0
    4.0678    1.5953   -0.6598 H   0  0  0  0  0  0  0  0  0  0  0  0
  1  2  1  0
  2  3  1  0
  3  4  2  0
  4  5  1  0
  5  6  1  0
  6  7  1  0
  7  8  2  0
  7  9  1  0
  9 10  1  0
 10 11  2  0
 10 12  1  0
 12 13  2  0
  5 14  2  0
 14  2  1  0
 12  6  1  0
  1 15  1  0
  1 16  1  0
  1 17  1  0
  3 18  1  0
  9 19  1  0
M  END
$$$$

     RDKit          3D

 19 20  0  0  0  0  0  0  0  0999 V2000
   -3.6503    0.2714    0.5075 C   0  0  0  0  0  0  0  0  0  0  0  0
   -2.3137    0.1049   -0.0892 N   0  0  0  0  0  0  0  0  0  0  0  0
   -2.0572   -0.1240   -1.3761 C   0  0  0  0  0  0  0  0  0  0  0  0
   -0.7199   -0.2135   -1.5093 N   0  0  0  0  0  0  0  0  0  0  0  0
   -0.1238   -0.0422   -0.3117 C   0  0  0  0  0  0  0  0  0  0  0  0
    1.2734   -0.0672   -0.0299 N   0  0  0  0  0  0  0  0  0  0  0  0
    1.9244   -0.8498    0.9554 C   0  0  0  0  0  0  0  0  0  0  0  0
    1.3900   -1.6534    1.7516 O   0  0  0  0  0  0  0  0  0  0  0  0
    3.3393   -0.5954    0.9254 N   0  0  0  0  0  0  0  0  0  0  0  0
    3.6101    0.3632   -0.0907 C   0  0  0  0  0  0  0  0  0  0  0  0
    4.7316    0.8550   -0.4364 O   0  0  0  0  0  0  0  0  0  0  0  0
    2.3085    0.6773   -0.6724 C   0  0  0  0  0  0  0  0  0  0  0  0
    2.0620    1.4836   -1.6132 O   0  0  0  0  0  0  0  0  0  0  0  0
   -1.1464    0.1527    0.5419 N   0  0  0  0  0  0  0  0  0  0  0  0
   -3.6806    1.1729    1.1630 H   0  0  0  0  0  0  0  0  0  0  0  0
   -3.7812   -0.5947    1.1875 H   0  0  0  0  0  0  0  0  0  0  0  0
   -4.3889    0.3222   -0.2912 H   0  0  0  0  0  0  0  0  0  0  0  0
   -2.8213   -0.2182   -2.1654 H   0  0  0  0  0  0  0  0  0  0  0  0
    4.0441   -1.0449    1.5531 H   0  0  0  0  0  0  0  0  0  0  0  0
  1  2  1  0
  2  3  1  0
  3  4  2  0
  4  5  1  0
  5  6  1  0
  6  7  1  0
  7  8  2  0
  7  9  1  0
  9 10  1  0
 10 11  2  0
 10 12  1  0
 12 13  2  0
  5 14  2  0
 14  2  1  0
 12  6  1  0
  1 15  1  0
  1 16  1  0
  1 17  1  0
  3 18  1  0
  9 19  1  0
M  END
$$$$

     RDKit          3D

 19 20  0  0  0  0  0  0  0  0999 V2000
   -3.6126   -0.0961   -0.2128 C   0  0  0  0  0  0  0  0  0  0  0  0
   -2.2640    0.4254   -0.1515 N   0  0  0  0  0  0  0  0  0  0  0  0
   -1.8364    1.7000   -0.1410 C   0  0  0  0  0  0  0  0  0  0  0  0
   -0.4841    1.7036   -0.0753 N   0  0  0  0  0  0  0  0  0  0  0  0
   -0.0716    0.4414   -0.0452 C   0  0  0  0  0  0  0  0  0  0  0  0
    1.2765   -0.0444    0.0240 N   0  0  0  0  0  0  0  0  0  0  0  0
    2.4794    0.6748    0.0658 C   0  0  0  0  0  0  0  0  0  0  0  0
    2.5947    1.9397    0.0491 O   0  0  0  0  0  0  0  0  0  0  0  0
    3.6017   -0.2271    0.1319 N   0  0  0  0  0  0  0  0  0  0  0  0
    3.0982   -1.5584    0.1322 C   0  0  0  0  0  0  0  0  0  0  0  0
    3.7591   -2.6499    0.1808 O   0  0  0  0  0  0  0  0  0  0  0  0
    1.6468   -1.4229    0.0645 C   0  0  0  0  0  0  0  0  0  0  0  0
    0.8584   -2.4175    0.0462 O   0  0  0  0  0  0  0  0  0  0  0  0
   -1.1831   -0.3138   -0.0931 N   0  0  0  0  0  0  0  0  0  0  0  0
   -4.3657    0.6098    0.1817 H   0  0  0  0  0  0  0  0  0  0  0  0
   -3.8830   -0.2930   -1.2797 H   0  0  0  0  0  0  0  0  0  0  0  0
   -3.7298   -1.0432    0.3548 H   0  0  0  0  0  0  0  0  0  0  0  0
   -2.5071    2.5473   -0.1804 H   0  0  0  0  0  0  0  0  0  0  0  0
    4.6227    0.0243    0.1738 H   0  0  0  0  0  0  0  0  0  0  0  0
  1  2  1  0
  2  3  1  0
  3  4  2  0
  4  5  1  0
  5  6  1  0
  6  7  1  0
  7  8  2  0
  7  9  1  0
  9 10  1  0
 10 11  2  0
 10 12  1  0
 12 13  2  0
  5 14  2  0
 14  2  1  0
 12  6  1  0
  1 15  1  0
  1 16  1  0
  1 17  1  0
  3 18  1  0
  9 19  1  0
M  END
$$$$
