
     RDKit          3D

 31 32  0  0  0  0  0  0  0  0999 V2000
   -2.2281    0.3377    2.0085 N   0  0  0  0  0  0  0  0  0  0  0  0
   -2.1700    0.9069    0.6833 C   0  0  2  0  0  0  0  0  0  0  0  0
   -3.0322    0.0593   -0.2187 C   0  0  0  0  0  0  0  0  0  0  0  0
   -2.8532   -1.2592    0.1971 O   0  0  0  0  0  0  0  0  0  0  0  0
   -1.9214   -1.9191   -0.5581 C   0  0  0  0  0  0  0  0  0  0  0  0
   -0.7991   -1.1031   -1.0655 C   0  0  0  0  0  0  0  0  0  0  0  0
   -0.1304   -0.3087   -0.0350 N   0  0  0  0  0  0  0  0  0  0  0  0
    1.1668    0.0083   -0.6373 C   0  0  0  0  0  0  0  0  0  0  0  0
    2.1199    0.6906    0.2846 C   0  0  2  0  0  0  0  0  0  0  0  0
    3.4231    0.9710   -0.4513 C   0  0  0  0  0  0  0  0  0  0  0  0
    4.1295    0.0646    0.4855 C   0  0  0  0  0  0  0  0  0  0  0  0
    5.3063   -0.2965    0.6521 O   0  0  0  0  0  0  0  0  0  0  0  0
    2.9008   -0.2244    1.1201 N   0  0  0  0  0  0  0  0  0  0  0  0
   -0.7894    0.9816    0.1135 C   0  0  0  0  0  0  0  0  0  0  0  0
   -1.4327    0.6199    2.6191 H   0  0  0  0  0  0  0  0  0  0  0  0
   -2.4450   -0.6676    2.0133 H   0  0  0  0  0  0  0  0  0  0  0  0
   -2.5813    1.9336    0.6725 H   0  0  0  0  0  0  0  0  0  0  0  0
   -4.0968    0.3552   -0.1190 H   0  0  0  0  0  0  0  0  0  0  0  0
   -2.7738    0.1911   -1.2728 H   0  0  0  0  0  0  0  0  0  0  0  0
   -2.4467   -2.3516   -1.4405 H   0  0  0  0  0  0  0  0  0  0  0  0
   -1.5614   -2.7883    0.0243 H   0  0  0  0  0  0  0  0  0  0  0  0
    0.0000   -1.8389   -1.4009 H   0  0  0  0  0  0  0  0  0  0  0  0
   -0.9850   -0.4887   -1.9530 H   0  0  0  0  0  0  0  0  0  0  0  0
    1.6406   -0.9215   -1.0101 H   0  0  0  0  0  0  0  0  0  0  0  0
    0.9542    0.7000   -1.4822 H   0  0  0  0  0  0  0  0  0  0  0  0
    1.8070    1.5769    0.8280 H   0  0  0  0  0  0  0  0  0  0  0  0
    3.4803    0.5740   -1.4727 H   0  0  0  0  0  0  0  0  0  0  0  0
    3.7702    2.0246   -0.3842 H   0  0  0  0  0  0  0  0  0  0  0  0
    2.6010   -0.8449    1.8934 H   0  0  0  0  0  0  0  0  0  0  0  0
   -0.1880    1.5843    0.8026 H   0  0  0  0  0  0  0  0  0  0  0  0
   -0.8653    1.4330   -0.8965 H   0  0  0  0  0  0  0  0  0  0  0  0
  1  2  1  0
  2  3  1  0
  3  4  1  0
  4  5  1  0
  5  6  1  0
  6  7  1  0
  7  8  1  0
  8  9  1  0
  9 10  1  0
 10 11  1  0
 11 12  2  0
 11 13  1  0
  7 14  1  0
 14  2  1  0
 13  9  1  0
  1 15  1  0
  1 16  1  0
  2 17  1  1
  3 18  1  0
  3 19  1  0
  5 20  1  0
  5 21  1  0
  6 22  1  0
  6 23  1  0
  8 24  1  0
  8 25  1  0
  9 26  1  1
 10 27  1  0
 10 28  1  0
 13 29  1  0
 14 30  1  0
 14 31  1  0
M  END
$$$$

     RDKit          3D

 31 32  0  0  0  0  0  0  0  0999 V2000
   -2.4137    1.8194    1.1302 N   0  0  0  0  0  0  0  0  0  0  0  0
   -1.8586    1.1079   -0.0163 C   0  0  2  0  0  0  0  0  0  0  0  0
   -2.8929    0.1520   -0.4642 C   0  0  0  0  0  0  0  0  0  0  0  0
   -2.9406   -0.9241    0.4142 O   0  0  0  0  0  0  0  0  0  0  0  0
   -2.1366   -1.9296   -0.0845 C   0  0  0  0  0  0  0  0  0  0  0  0
   -0.9420   -1.4482   -0.8523 C   0  0  0  0  0  0  0  0  0  0  0  0
   -0.0645   -0.6244   -0.0711 N   0  0  0  0  0  0  0  0  0  0  0  0
    1.2671   -0.8758   -0.4788 C   0  0  0  0  0  0  0  0  0  0  0  0
    2.3747   -0.3063    0.3031 C   0  0  2  0  0  0  0  0  0  0  0  0
    2.5373    1.1688    0.4373 C   0  0  0  0  0  0  0  0  0  0  0  0
    4.0158    0.8209    0.5092 C   0  0  0  0  0  0  0  0  0  0  0  0
    5.0442    1.2321    1.0448 O   0  0  0  0  0  0  0  0  0  0  0  0
    3.6695   -0.2740   -0.3800 N   0  0  0  0  0  0  0  0  0  0  0  0
   -0.5113    0.6057    0.3477 C   0  0  0  0  0  0  0  0  0  0  0  0
   -2.1699    1.2862    1.9987 H   0  0  0  0  0  0  0  0  0  0  0  0
   -2.1582    2.8120    1.1692 H   0  0  0  0  0  0  0  0  0  0  0  0
   -1.7930    1.8976   -0.8255 H   0  0  0  0  0  0  0  0  0  0  0  0
   -3.8962    0.6615   -0.3378 H   0  0  0  0  0  0  0  0  0  0  0  0
   -2.8915   -0.1231   -1.5205 H   0  0  0  0  0  0  0  0  0  0  0  0
   -1.7371   -2.5139    0.7938 H   0  0  0  0  0  0  0  0  0  0  0  0
   -2.7354   -2.6315   -0.6747 H   0  0  0  0  0  0  0  0  0  0  0  0
   -1.1236   -1.0139   -1.8323 H   0  0  0  0  0  0  0  0  0  0  0  0
   -0.3551   -2.3976   -1.0578 H   0  0  0  0  0  0  0  0  0  0  0  0
    1.3614   -1.9993   -0.6093 H   0  0  0  0  0  0  0  0  0  0  0  0
    1.3389   -0.4127   -1.5348 H   0  0  0  0  0  0  0  0  0  0  0  0
    2.4790   -0.7756    1.3348 H   0  0  0  0  0  0  0  0  0  0  0  0
    2.2134    1.6404    1.3603 H   0  0  0  0  0  0  0  0  0  0  0  0
    2.3356    1.7530   -0.4999 H   0  0  0  0  0  0  0  0  0  0  0  0
    4.1978   -0.7363   -1.1167 H   0  0  0  0  0  0  0  0  0  0  0  0
   -0.4022    0.6277    1.4819 H   0  0  0  0  0  0  0  0  0  0  0  0
    0.1879    1.4012    0.0310 H   0  0  0  0  0  0  0  0  0  0  0  0
  1  2  1  0
  2  3  1  0
  3  4  1  0
  4  5  1  0
  5  6  1  0
  6  7  1  0
  7  8  1  0
  8  9  1  0
  9 10  1  0
 10 11  1  0
 11 12  2  0
 11 13  1  0
  7 14  1  0
 14  2  1  0
 13  9  1  0
  1 15  1  0
  1 16  1  0
  2 17  1  6
  3 18  1  0
  3 19  1  0
  5 20  1  0
  5 21  1  0
  6 22  1  0
  6 23  1  0
  8 24  1  0
  8 25  1  0
  9 26  1  1
 10 27  1  0
 10 28  1  0
 13 29  1  0
 14 30  1  0
 14 31  1  0
M  END
$$$$

     RDKit          3D

 31 32  0  0  0  0  0  0  0  0999 V2000
   -2.1430    2.1622   -0.2148 N   0  0  0  0  0  0  0  0  0  0  0  0
   -1.8833    0.7355   -0.1210 C   0  0  2  0  0  0  0  0  0  0  0  0
   -3.1388    0.0906    0.4093 C   0  0  0  0  0  0  0  0  0  0  0  0
   -3.1595   -1.2190   -0.0401 O   0  0  0  0  0  0  0  0  0  0  0  0
   -2.1128   -1.8987    0.5794 C   0  0  0  0  0  0  0  0  0  0  0  0
   -0.7992   -1.7036   -0.1019 C   0  0  0  0  0  0  0  0  0  0  0  0
    0.0171   -0.6795    0.5281 N   0  0  0  0  0  0  0  0  0  0  0  0
    1.2003   -0.5251   -0.2384 C   0  0  0  0  0  0  0  0  0  0  0  0
    2.1834    0.4802    0.2319 C   0  0  2  0  0  0  0  0  0  0  0  0
    3.3854    0.5212   -0.6932 C   0  0  0  0  0  0  0  0  0  0  0  0
    4.1161    0.8246    0.5641 C   0  0  0  0  0  0  0  0  0  0  0  0
    5.1212    1.4606    0.9167 O   0  0  0  0  0  0  0  0  0  0  0  0
    3.1263    0.0343    1.2480 N   0  0  0  0  0  0  0  0  0  0  0  0
   -0.7154    0.4910    0.8394 C   0  0  0  0  0  0  0  0  0  0  0  0
   -1.2971    2.7079    0.0705 H   0  0  0  0  0  0  0  0  0  0  0  0
   -2.9060    2.4459    0.4414 H   0  0  0  0  0  0  0  0  0  0  0  0
   -1.6315    0.3959   -1.1440 H   0  0  0  0  0  0  0  0  0  0  0  0
   -3.1602    0.1365    1.5115 H   0  0  0  0  0  0  0  0  0  0  0  0
   -4.0110    0.6598    0.0279 H   0  0  0  0  0  0  0  0  0  0  0  0
   -2.0345   -1.6691    1.6534 H   0  0  0  0  0  0  0  0  0  0  0  0
   -2.3770   -2.9896    0.5104 H   0  0  0  0  0  0  0  0  0  0  0  0
   -0.2060   -2.6611   -0.0275 H   0  0  0  0  0  0  0  0  0  0  0  0
   -0.9076   -1.5261   -1.1945 H   0  0  0  0  0  0  0  0  0  0  0  0
    1.7103   -1.5117   -0.2842 H   0  0  0  0  0  0  0  0  0  0  0  0
    0.9270   -0.2843   -1.2942 H   0  0  0  0  0  0  0  0  0  0  0  0
    1.8514    1.4891    0.4522 H   0  0  0  0  0  0  0  0  0  0  0  0
    3.6393   -0.5014   -1.0945 H   0  0  0  0  0  0  0  0  0  0  0  0
    3.3675    1.3205   -1.4422 H   0  0  0  0  0  0  0  0  0  0  0  0
    3.1885   -0.5507    2.0880 H   0  0  0  0  0  0  0  0  0  0  0  0
   -1.1956    0.3441    1.8393 H   0  0  0  0  0  0  0  0  0  0  0  0
   -0.1558    1.4200    0.8883 H   0  0  0  0  0  0  0  0  0  0  0  0
  1  2  1  0
  2  3  1  0
  3  4  1  0
  4  5  1  0
  5  6  1  0
  6  7  1  0
  7  8  1  0
  8  9  1  0
  9 10  1  0
 10 11  1  0
 11 12  2  0
 11 13  1  0
  7 14  1  0
 14  2  1  0
 13  9  1  0
  1 15  1  0
  1 16  1  0
  2 17  1  6
  3 18  1  0
  3 19  1  0
  5 20  1  0
  5 21  1  0
  6 22  1  0
  6 23  1  0
  8 24  1  0
  8 25  1  0
  9 26  1  1
 10 27  1  0
 10 28  1  0
 13 29  1  0
 14 30  1  0
 14 31  1  0
M  END
$$$$

     RDKit          3D

 31 32  0  0  0  0  0  0  0  0999 V2000
   -3.1842    1.4193    1.0787 N   0  0  0  0  0  0  0  0  0  0  0  0
   -2.2254    1.1605   -0.0105 C   0  0  2  0  0  0  0  0  0  0  0  0
   -2.8299    0.0895   -0.8628 C   0  0  0  0  0  0  0  0  0  0  0  0
   -2.6498   -1.1417   -0.3268 O   0  0  0  0  0  0  0  0  0  0  0  0
   -1.4003   -1.6587   -0.3460 C   0  0  0  0  0  0  0  0  0  0  0  0
   -0.3592   -0.8317   -1.0719 C   0  0  0  0  0  0  0  0  0  0  0  0
    0.0710    0.2639   -0.2151 N   0  0  0  0  0  0  0  0  0  0  0  0
    1.2014   -0.1598    0.5778 C   0  0  0  0  0  0  0  0  0  0  0  0
    2.4017   -0.2692   -0.3303 C   0  0  2  0  0  0  0  0  0  0  0  0
    3.6573   -0.7352    0.3792 C   0  0  0  0  0  0  0  0  0  0  0  0
    3.6933    0.6476    0.8903 C   0  0  0  0  0  0  0  0  0  0  0  0
    4.0935    1.2272    1.9257 O   0  0  0  0  0  0  0  0  0  0  0  0
    3.0734    1.0573   -0.3069 N   0  0  0  0  0  0  0  0  0  0  0  0
   -0.9401    0.7786    0.6447 C   0  0  0  0  0  0  0  0  0  0  0  0
   -4.1600    1.5481    0.6655 H   0  0  0  0  0  0  0  0  0  0  0  0
   -3.2280    0.4938    1.6060 H   0  0  0  0  0  0  0  0  0  0  0  0
   -2.1159    2.1101   -0.5981 H   0  0  0  0  0  0  0  0  0  0  0  0
   -3.9534    0.2751   -0.8558 H   0  0  0  0  0  0  0  0  0  0  0  0
   -2.5749    0.1783   -1.9400 H   0  0  0  0  0  0  0  0  0  0  0  0
   -1.3999   -2.6675   -0.7960 H   0  0  0  0  0  0  0  0  0  0  0  0
   -0.9775   -1.7899    0.6893 H   0  0  0  0  0  0  0  0  0  0  0  0
   -0.6600   -0.5057   -2.0776 H   0  0  0  0  0  0  0  0  0  0  0  0
    0.4936   -1.5247   -1.2036 H   0  0  0  0  0  0  0  0  0  0  0  0
    1.3796    0.5347    1.4183 H   0  0  0  0  0  0  0  0  0  0  0  0
    0.9858   -1.1940    0.9819 H   0  0  0  0  0  0  0  0  0  0  0  0
    2.2469   -0.6170   -1.3504 H   0  0  0  0  0  0  0  0  0  0  0  0
    4.4794   -0.9356   -0.3361 H   0  0  0  0  0  0  0  0  0  0  0  0
    3.4657   -1.5308    1.1273 H   0  0  0  0  0  0  0  0  0  0  0  0
    3.1032    1.9024   -0.8740 H   0  0  0  0  0  0  0  0  0  0  0  0
   -0.5271    1.7296    1.0830 H   0  0  0  0  0  0  0  0  0  0  0  0
   -1.1602    0.1455    1.5300 H   0  0  0  0  0  0  0  0  0  0  0  0
  1  2  1  0
  2  3  1  0
  3  4  1  0
  4  5  1  0
  5  6  1  0
  6  7  1  0
  7  8  1  0
  8  9  1  0
  9 10  1  0
 10 11  1  0
 11 12  2  0
 11 13  1  0
  7 14  1  0
 14  2  1  0
 13  9  1  0
  1 15  1  0
  1 16  1  0
  2 17  1  6
  3 18  1  0
  3 19  1  0
  5 20  1  0
  5 21  1  0
  6 22  1  0
  6 23  1  0
  8 24  1  0
  8 25  1  0
  9 26  1  6
 10 27  1  0
 10 28  1  0
 13 29  1  0
 14 30  1  0
 14 31  1  0
M  END
$$$$

     RDKit          3D

 31 32  0  0  0  0  0  0  0  0999 V2000
   -2.4100    2.0787   -0.7529 N   0  0  0  0  0  0  0  0  0  0  0  0
   -1.9673    0.7470   -0.4399 C   0  0  2  0  0  0  0  0  0  0  0  0
   -3.1252   -0.1737   -0.0510 C   0  0  0  0  0  0  0  0  0  0  0  0
   -2.4922   -1.3247    0.4372 O   0  0  0  0  0  0  0  0  0  0  0  0
   -1.5809   -1.8463   -0.4321 C   0  0  0  0  0  0  0  0  0  0  0  0
   -0.1819   -1.3674   -0.2876 C   0  0  0  0  0  0  0  0  0  0  0  0
    0.0465   -0.1977    0.4392 N   0  0  0  0  0  0  0  0  0  0  0  0
    1.1991   -0.0969    1.2489 C   0  0  0  0  0  0  0  0  0  0  0  0
    2.5160   -0.0185    0.5972 C   0  0  2  0  0  0  0  0  0  0  0  0
    2.7483    1.1464   -0.3422 C   0  0  0  0  0  0  0  0  0  0  0  0
    3.6772    0.1972   -0.9740 C   0  0  0  0  0  0  0  0  0  0  0  0
    4.7478    0.1919   -1.5993 O   0  0  0  0  0  0  0  0  0  0  0  0
    2.7909   -0.8375   -0.5571 N   0  0  0  0  0  0  0  0  0  0  0  0
   -1.0063    0.6899    0.7172 C   0  0  0  0  0  0  0  0  0  0  0  0
   -2.3906    2.7271    0.0667 H   0  0  0  0  0  0  0  0  0  0  0  0
   -1.8592    2.4318   -1.5700 H   0  0  0  0  0  0  0  0  0  0  0  0
   -1.5152    0.2915   -1.3538 H   0  0  0  0  0  0  0  0  0  0  0  0
   -3.8179   -0.3628   -0.8777 H   0  0  0  0  0  0  0  0  0  0  0  0
   -3.6414    0.2941    0.8371 H   0  0  0  0  0  0  0  0  0  0  0  0
   -1.9783   -1.6913   -1.4633 H   0  0  0  0  0  0  0  0  0  0  0  0
   -1.5935   -2.9667   -0.2866 H   0  0  0  0  0  0  0  0  0  0  0  0
    0.2233   -1.2229   -1.3331 H   0  0  0  0  0  0  0  0  0  0  0  0
    0.4647   -2.1872    0.1402 H   0  0  0  0  0  0  0  0  0  0  0  0
    1.0779    0.8167    1.8901 H   0  0  0  0  0  0  0  0  0  0  0  0
    1.2223   -0.9373    1.9809 H   0  0  0  0  0  0  0  0  0  0  0  0
    3.3678   -0.0678    1.3109 H   0  0  0  0  0  0  0  0  0  0  0  0
    1.8978    1.3451   -1.0423 H   0  0  0  0  0  0  0  0  0  0  0  0
    3.1815    2.0611    0.1098 H   0  0  0  0  0  0  0  0  0  0  0  0
    2.5153   -1.7634   -0.9683 H   0  0  0  0  0  0  0  0  0  0  0  0
   -1.5084    0.3411    1.6666 H   0  0  0  0  0  0  0  0  0  0  0  0
   -0.6080    1.7029    0.9578 H   0  0  0  0  0  0  0  0  0  0  0  0
  1  2  1  0
  2  3  1  0
  3  4  1  0
  4  5  1  0
  5  6  1  0
  6  7  1  0
  7  8  1  0
  8  9  1  0
  9 10  1  0
 10 11  1  0
 11 12  2  0
 11 13  1  0
  7 14  1  0
 14  2  1  0
 13  9  1  0
  1 15  1  0
  1 16  1  0
  2 17  1  6
  3 18  1  0
  3 19  1  0
  5 20  1  0
  5 21  1  0
  6 22  1  0
  6 23  1  0
  8 24  1  0
  8 25  1  0
  9 26  1  1
 10 27  1  0
 10 28  1  0
 13 29  1  0
 14 30  1  0
 14 31  1  0
M  END
$$$$

     RDKit          3D

 31 32  0  0  0  0  0  0  0  0999 V2000
   -2.5009    1.9584   -0.8984 N   0  0  0  0  0  0  0  0  0  0  0  0
   -2.0154    0.6917   -0.4483 C   0  0  2  0  0  0  0  0  0  0  0  0
   -2.7709    0.1936    0.7337 C   0  0  0  0  0  0  0  0  0  0  0  0
   -2.6097   -1.1441    1.0031 O   0  0  0  0  0  0  0  0  0  0  0  0
   -2.0058   -1.8947    0.0236 C   0  0  0  0  0  0  0  0  0  0  0  0
   -0.5291   -1.5799   -0.1677 C   0  0  0  0  0  0  0  0  0  0  0  0
   -0.1667   -0.4008    0.6303 N   0  0  0  0  0  0  0  0  0  0  0  0
    1.2596   -0.4712    0.8110 C   0  0  0  0  0  0  0  0  0  0  0  0
    2.0601   -0.1904   -0.4413 C   0  0  2  0  0  0  0  0  0  0  0  0
    3.5290   -0.3367   -0.1421 C   0  0  0  0  0  0  0  0  0  0  0  0
    3.7519    1.1102   -0.2138 C   0  0  0  0  0  0  0  0  0  0  0  0
    4.7235    1.8709   -0.0263 O   0  0  0  0  0  0  0  0  0  0  0  0
    2.3662    1.2359   -0.5927 N   0  0  0  0  0  0  0  0  0  0  0  0
   -0.5562    0.7979   -0.1002 C   0  0  0  0  0  0  0  0  0  0  0  0
   -3.4236    1.9392   -1.3531 H   0  0  0  0  0  0  0  0  0  0  0  0
   -2.2973    2.7532   -0.2930 H   0  0  0  0  0  0  0  0  0  0  0  0
   -2.0847    0.0013   -1.3259 H   0  0  0  0  0  0  0  0  0  0  0  0
   -3.8442    0.4065    0.6047 H   0  0  0  0  0  0  0  0  0  0  0  0
   -2.4299    0.7642    1.6317 H   0  0  0  0  0  0  0  0  0  0  0  0
   -2.5644   -1.9390   -0.9377 H   0  0  0  0  0  0  0  0  0  0  0  0
   -2.0247   -2.9582    0.4096 H   0  0  0  0  0  0  0  0  0  0  0  0
   -0.3167   -1.3720   -1.2290 H   0  0  0  0  0  0  0  0  0  0  0  0
    0.1391   -2.3929    0.1606 H   0  0  0  0  0  0  0  0  0  0  0  0
    1.4887   -1.5270    1.1144 H   0  0  0  0  0  0  0  0  0  0  0  0
    1.5553    0.2248    1.5923 H   0  0  0  0  0  0  0  0  0  0  0  0
    1.7718   -0.7201   -1.3529 H   0  0  0  0  0  0  0  0  0  0  0  0
    3.7753   -0.7599    0.8587 H   0  0  0  0  0  0  0  0  0  0  0  0
    4.1263   -0.8409   -0.9446 H   0  0  0  0  0  0  0  0  0  0  0  0
    1.8673    2.1074   -0.8619 H   0  0  0  0  0  0  0  0  0  0  0  0
   -0.0148    0.8065   -1.0812 H   0  0  0  0  0  0  0  0  0  0  0  0
   -0.2592    1.6661    0.4701 H   0  0  0  0  0  0  0  0  0  0  0  0
  1  2  1  0
  2  3  1  0
  3  4  1  0
  4  5  1  0
  5  6  1  0
  6  7  1  0
  7  8  1  0
  8  9  1  0
  9 10  1  0
 10 11  1  0
 11 12  2  0
 11 13  1  0
  7 14  1  0
 14  2  1  0
 13  9  1  0
  1 15  1  0
  1 16  1  0
  2 17  1  6
  3 18  1  0
  3 19  1  0
  5 20  1  0
  5 21  1  0
  6 22  1  0
  6 23  1  0
  8 24  1  0
  8 25  1  0
  9 26  1  6
 10 27  1  0
 10 28  1  0
 13 29  1  0
 14 30  1  0
 14 31  1  0
M  END
$$$$

     RDKit          3D

 31 32  0  0  0  0  0  0  0  0999 V2000
   -3.0754    0.6513    1.1450 N   0  0  0  0  0  0  0  0  0  0  0  0
   -2.1954    1.1727    0.1377 C   0  0  2  0  0  0  0  0  0  0  0  0
   -2.5570    0.5527   -1.1776 C   0  0  0  0  0  0  0  0  0  0  0  0
   -2.7479   -0.8061   -1.1610 O   0  0  0  0  0  0  0  0  0  0  0  0
   -1.7431   -1.5551   -0.6213 C   0  0  0  0  0  0  0  0  0  0  0  0
   -0.3599   -0.8978   -0.7591 C   0  0  0  0  0  0  0  0  0  0  0  0
   -0.1549   -0.1873    0.4501 N   0  0  0  0  0  0  0  0  0  0  0  0
    1.0419   -0.3426    1.1573 C   0  0  0  0  0  0  0  0  0  0  0  0
    2.2597    0.2673    0.5768 C   0  0  2  0  0  0  0  0  0  0  0  0
    2.7201   -0.1723   -0.7742 C   0  0  0  0  0  0  0  0  0  0  0  0
    4.0858    0.0937   -0.1653 C   0  0  0  0  0  0  0  0  0  0  0  0
    5.1733    0.4691   -0.5957 O   0  0  0  0  0  0  0  0  0  0  0  0
    3.5220   -0.2798    1.0725 N   0  0  0  0  0  0  0  0  0  0  0  0
   -0.7491    1.1125    0.4978 C   0  0  0  0  0  0  0  0  0  0  0  0
   -2.5763    0.2289    1.9546 H   0  0  0  0  0  0  0  0  0  0  0  0
   -3.8553    0.0986    0.7812 H   0  0  0  0  0  0  0  0  0  0  0  0
   -2.4556    2.2710    0.0378 H   0  0  0  0  0  0  0  0  0  0  0  0
   -1.8743    0.8870   -2.0109 H   0  0  0  0  0  0  0  0  0  0  0  0
   -3.5524    1.0054   -1.4671 H   0  0  0  0  0  0  0  0  0  0  0  0
   -1.7492   -2.5630   -1.0655 H   0  0  0  0  0  0  0  0  0  0  0  0
   -1.9136   -1.7442    0.4823 H   0  0  0  0  0  0  0  0  0  0  0  0
    0.3370   -1.7610   -0.7913 H   0  0  0  0  0  0  0  0  0  0  0  0
   -0.2729   -0.3550   -1.6908 H   0  0  0  0  0  0  0  0  0  0  0  0
    0.9314    0.0664    2.2028 H   0  0  0  0  0  0  0  0  0  0  0  0
    1.2487   -1.4358    1.2870 H   0  0  0  0  0  0  0  0  0  0  0  0
    2.3026    1.3930    0.6476 H   0  0  0  0  0  0  0  0  0  0  0  0
    2.6389   -1.2486   -1.0019 H   0  0  0  0  0  0  0  0  0  0  0  0
    2.4681    0.5160   -1.6165 H   0  0  0  0  0  0  0  0  0  0  0  0
    3.9045   -0.7366    1.9133 H   0  0  0  0  0  0  0  0  0  0  0  0
   -0.1700    1.8047   -0.1538 H   0  0  0  0  0  0  0  0  0  0  0  0
   -0.6315    1.4949    1.5310 H   0  0  0  0  0  0  0  0  0  0  0  0
  1  2  1  0
  2  3  1  0
  3  4  1  0
  4  5  1  0
  5  6  1  0
  6  7  1  0
  7  8  1  0
  8  9  1  0
  9 10  1  0
 10 11  1  0
 11 12  2  0
 11 13  1  0
  7 14  1  0
 14  2  1  0
 13  9  1  0
  1 15  1  0
  1 16  1  0
  2 17  1  6
  3 18  1  0
  3 19  1  0
  5 20  1  0
  5 21  1  0
  6 22  1  0
  6 23  1  0
  8 24  1  0
  8 25  1  0
  9 26  1  6
 10 27  1  0
 10 28  1  0
 13 29  1  0
 14 30  1  0
 14 31  1  0
M  END
$$$$

     RDKit          3D

 31 32  0  0  0  0  0  0  0  0999 V2000
   -2.8028    2.3275   -0.4525 N   0  0  0  0  0  0  0  0  0  0  0  0
   -2.2562    1.0144   -0.5934 C   0  0  2  0  0  0  0  0  0  0  0  0
   -3.0259   -0.0586    0.1460 C   0  0  0  0  0  0  0  0  0  0  0  0
   -2.6488   -1.2714   -0.4151 O   0  0  0  0  0  0  0  0  0  0  0  0
   -1.7266   -1.9755    0.3149 C   0  0  0  0  0  0  0  0  0  0  0  0
   -0.3311   -1.3981    0.2934 C   0  0  0  0  0  0  0  0  0  0  0  0
   -0.1994   -0.2552   -0.5365 N   0  0  0  0  0  0  0  0  0  0  0  0
    1.1502   -0.0403   -0.9152 C   0  0  0  0  0  0  0  0  0  0  0  0
    2.0857    0.3688    0.1844 C   0  0  2  0  0  0  0  0  0  0  0  0
    3.5192    0.5958   -0.2981 C   0  0  0  0  0  0  0  0  0  0  0  0
    3.9619   -0.6411    0.3887 C   0  0  0  0  0  0  0  0  0  0  0  0
    5.0103   -1.3197    0.4290 O   0  0  0  0  0  0  0  0  0  0  0  0
    2.6496   -0.7026    0.9806 N   0  0  0  0  0  0  0  0  0  0  0  0
   -0.8270    0.9436   -0.0852 C   0  0  0  0  0  0  0  0  0  0  0  0
   -2.0969    3.0129   -0.7948 H   0  0  0  0  0  0  0  0  0  0  0  0
   -3.1043    2.5183    0.5251 H   0  0  0  0  0  0  0  0  0  0  0  0
   -2.2636    0.7063   -1.6772 H   0  0  0  0  0  0  0  0  0  0  0  0
   -2.9055   -0.0137    1.2402 H   0  0  0  0  0  0  0  0  0  0  0  0
   -4.1041    0.0885   -0.0885 H   0  0  0  0  0  0  0  0  0  0  0  0
   -2.0216   -2.0880    1.3849 H   0  0  0  0  0  0  0  0  0  0  0  0
   -1.7205   -3.0213   -0.0926 H   0  0  0  0  0  0  0  0  0  0  0  0
    0.3676   -2.1792   -0.0680 H   0  0  0  0  0  0  0  0  0  0  0  0
   -0.0128   -1.1075    1.3259 H   0  0  0  0  0  0  0  0  0  0  0  0
    1.2005    0.7785   -1.6836 H   0  0  0  0  0  0  0  0  0  0  0  0
    1.5826   -0.9549   -1.3783 H   0  0  0  0  0  0  0  0  0  0  0  0
    1.7412    1.1757    0.8476 H   0  0  0  0  0  0  0  0  0  0  0  0
    4.0175    1.4858    0.1677 H   0  0  0  0  0  0  0  0  0  0  0  0
    3.6107    0.5264   -1.3922 H   0  0  0  0  0  0  0  0  0  0  0  0
    2.3174   -1.3434    1.7284 H   0  0  0  0  0  0  0  0  0  0  0  0
   -0.2839    1.7995   -0.5049 H   0  0  0  0  0  0  0  0  0  0  0  0
   -0.8834    1.0287    1.0194 H   0  0  0  0  0  0  0  0  0  0  0  0
  1  2  1  0
  2  3  1  0
  3  4  1  0
  4  5  1  0
  5  6  1  0
  6  7  1  0
  7  8  1  0
  8  9  1  0
  9 10  1  0
 10 11  1  0
 11 12  2  0
 11 13  1  0
  7 14  1  0
 14  2  1  0
 13  9  1  0
  1 15  1  0
  1 16  1  0
  2 17  1  6
  3 18  1  0
  3 19  1  0
  5 20  1  0
  5 21  1  0
  6 22  1  0
  6 23  1  0
  8 24  1  0
  8 25  1  0
  9 26  1  1
 10 27  1  0
 10 28  1  0
 13 29  1  0
 14 30  1  0
 14 31  1  0
M  END
$$$$
