
     RDKit          3D

 28 28  0  0  0  0  0  0  0  0999 V2000
   -3.0290   -1.4524    0.1441 C   0  0  0  0  0  0  0  0  0  0  0  0
   -2.0168   -0.3363   -0.1653 C   0  0  2  0  0  0  0  0  0  0  0  0
   -2.3993    0.1550   -1.4375 O   0  0  0  0  0  0  0  0  0  0  0  0
   -0.6834   -0.9942   -0.2430 C   0  0  0  0  0  0  0  0  0  0  0  0
    0.3764   -0.1510   -0.6687 N   0  0  0  0  0  0  0  0  0  0  0  0
    0.8268    0.9038    0.1897 C   0  0  0  0  0  0  0  0  0  0  0  0
    2.2269    0.6294   -0.3293 C   0  0  0  0  0  0  0  0  0  0  0  0
    3.3194    0.8387    0.6819 C   0  0  0  0  0  0  0  0  0  0  0  0
    4.5816    0.5673    0.1832 O   0  0  0  0  0  0  0  0  0  0  0  0
    1.6876   -0.7674   -0.4861 C   0  0  0  0  0  0  0  0  0  0  0  0
   -2.1551    0.7211    0.8294 C   0  0  0  0  0  0  0  0  0  0  0  0
   -1.8860    0.4919    2.0326 O   0  0  0  0  0  0  0  0  0  0  0  0
   -2.5803    1.9913    0.4891 O   0  0  0  0  0  0  0  0  0  0  0  0
   -2.4979   -2.1207    0.8686 H   0  0  0  0  0  0  0  0  0  0  0  0
   -3.9684   -1.0633    0.5399 H   0  0  0  0  0  0  0  0  0  0  0  0
   -3.2148   -2.0048   -0.7966 H   0  0  0  0  0  0  0  0  0  0  0  0
   -3.3890    0.1848   -1.4617 H   0  0  0  0  0  0  0  0  0  0  0  0
   -0.4885   -1.5395    0.6970 H   0  0  0  0  0  0  0  0  0  0  0  0
   -0.7838   -1.7940   -1.0322 H   0  0  0  0  0  0  0  0  0  0  0  0
    0.5510    1.9356   -0.0878 H   0  0  0  0  0  0  0  0  0  0  0  0
    0.7841    0.6926    1.2872 H   0  0  0  0  0  0  0  0  0  0  0  0
    2.3927    1.1251   -1.3090 H   0  0  0  0  0  0  0  0  0  0  0  0
    3.3395    1.9492    0.8994 H   0  0  0  0  0  0  0  0  0  0  0  0
    3.1211    0.3433    1.6434 H   0  0  0  0  0  0  0  0  0  0  0  0
    4.7512   -0.3897    0.0199 H   0  0  0  0  0  0  0  0  0  0  0  0
    1.7969   -1.3586    0.4433 H   0  0  0  0  0  0  0  0  0  0  0  0
    2.0579   -1.2984   -1.3910 H   0  0  0  0  0  0  0  0  0  0  0  0
   -2.7208    2.7414    1.1417 H   0  0  0  0  0  0  0  0  0  0  0  0
  1  2  1  0
  2  3  1  6
  2  4  1  0
  4  5  1  0
  5  6  1  0
  6  7  1  0
  7  8  1  0
  8  9  1  0
  7 10  1  0
  2 11  1  0
 11 12  2  0
 11 13  1  0
 10  5  1  0
  1 14  1  0
  1 15  1  0
  1 16  1  0
  3 17  1  0
  4 18  1  0
  4 19  1  0
  6 20  1  0
  6 21  1  0
  7 22  1  0
  8 23  1  0
  8 24  1  0
  9 25  1  0
 10 26  1  0
 10 27  1  0
 13 28  1  0
M  END
$$$$

     RDKit          3D

 28 28  0  0  0  0  0  0  0  0999 V2000
   -2.5604   -1.3211    1.0580 C   0  0  0  0  0  0  0  0  0  0  0  0
   -2.0436   -0.4264   -0.0437 C   0  0  2  0  0  0  0  0  0  0  0  0
   -2.8490   -0.7542   -1.1938 O   0  0  0  0  0  0  0  0  0  0  0  0
   -0.6631   -0.7669   -0.4609 C   0  0  0  0  0  0  0  0  0  0  0  0
    0.3808   -0.5589    0.4646 N   0  0  0  0  0  0  0  0  0  0  0  0
    0.7979    0.7378    0.8485 C   0  0  0  0  0  0  0  0  0  0  0  0
    2.2506    0.3052    0.5760 C   0  0  0  0  0  0  0  0  0  0  0  0
    2.9542    1.2437   -0.3864 C   0  0  0  0  0  0  0  0  0  0  0  0
    4.2590    0.8204   -0.6099 O   0  0  0  0  0  0  0  0  0  0  0  0
    1.6902   -0.9426   -0.0371 C   0  0  0  0  0  0  0  0  0  0  0  0
   -2.2921    0.9841    0.2874 C   0  0  0  0  0  0  0  0  0  0  0  0
   -1.8681    1.4575    1.3918 O   0  0  0  0  0  0  0  0  0  0  0  0
   -2.9660    1.8706   -0.5218 O   0  0  0  0  0  0  0  0  0  0  0  0
   -2.2109   -2.3507    0.8603 H   0  0  0  0  0  0  0  0  0  0  0  0
   -2.2307   -0.9657    2.0666 H   0  0  0  0  0  0  0  0  0  0  0  0
   -3.6840   -1.3473    1.0154 H   0  0  0  0  0  0  0  0  0  0  0  0
   -2.8275   -1.7414   -1.2420 H   0  0  0  0  0  0  0  0  0  0  0  0
   -0.4733   -0.3066   -1.4631 H   0  0  0  0  0  0  0  0  0  0  0  0
   -0.6770   -1.8814   -0.6873 H   0  0  0  0  0  0  0  0  0  0  0  0
    0.7213    0.9302    1.9544 H   0  0  0  0  0  0  0  0  0  0  0  0
    0.5429    1.5968    0.2094 H   0  0  0  0  0  0  0  0  0  0  0  0
    2.8428    0.0895    1.4686 H   0  0  0  0  0  0  0  0  0  0  0  0
    2.3928    1.2898   -1.3392 H   0  0  0  0  0  0  0  0  0  0  0  0
    2.9817    2.2414    0.0868 H   0  0  0  0  0  0  0  0  0  0  0  0
    4.2991   -0.1598   -0.5842 H   0  0  0  0  0  0  0  0  0  0  0  0
    2.0013   -1.8965    0.4167 H   0  0  0  0  0  0  0  0  0  0  0  0
    1.7448   -0.9169   -1.1646 H   0  0  0  0  0  0  0  0  0  0  0  0
   -2.5139    2.7696   -0.7270 H   0  0  0  0  0  0  0  0  0  0  0  0
  1  2  1  0
  2  3  1  6
  2  4  1  0
  4  5  1  0
  5  6  1  0
  6  7  1  0
  7  8  1  0
  8  9  1  0
  7 10  1  0
  2 11  1  0
 11 12  2  0
 11 13  1  0
 10  5  1  0
  1 14  1  0
  1 15  1  0
  1 16  1  0
  3 17  1  0
  4 18  1  0
  4 19  1  0
  6 20  1  0
  6 21  1  0
  7 22  1  0
  8 23  1  0
  8 24  1  0
  9 25  1  0
 10 26  1  0
 10 27  1  0
 13 28  1  0
M  END
$$$$

     RDKit          3D

 28 28  0  0  0  0  0  0  0  0999 V2000
   -2.8576    1.1376   -0.1818 C   0  0  0  0  0  0  0  0  0  0  0  0
   -2.1309   -0.0233    0.4718 C   0  0  2  0  0  0  0  0  0  0  0  0
   -2.8306   -0.2250    1.7030 O   0  0  0  0  0  0  0  0  0  0  0  0
   -0.7478    0.3589    0.8825 C   0  0  0  0  0  0  0  0  0  0  0  0
    0.1712    0.6150   -0.1696 N   0  0  0  0  0  0  0  0  0  0  0  0
    1.4252    1.1332    0.4529 C   0  0  0  0  0  0  0  0  0  0  0  0
    2.1060    0.5751   -0.7725 C   0  0  0  0  0  0  0  0  0  0  0  0
    3.5155    0.1194   -0.5562 C   0  0  0  0  0  0  0  0  0  0  0  0
    3.6268   -0.8832    0.3855 O   0  0  0  0  0  0  0  0  0  0  0  0
    1.0445   -0.5165   -0.5397 C   0  0  0  0  0  0  0  0  0  0  0  0
   -2.2997   -1.2376   -0.2959 C   0  0  0  0  0  0  0  0  0  0  0  0
   -1.8841   -1.2883   -1.5040 O   0  0  0  0  0  0  0  0  0  0  0  0
   -2.8884   -2.3769    0.1859 O   0  0  0  0  0  0  0  0  0  0  0  0
   -2.3446    1.5496   -1.0568 H   0  0  0  0  0  0  0  0  0  0  0  0
   -2.9144    1.9327    0.5866 H   0  0  0  0  0  0  0  0  0  0  0  0
   -3.8544    0.7579   -0.4686 H   0  0  0  0  0  0  0  0  0  0  0  0
   -2.5258   -1.1235    1.9846 H   0  0  0  0  0  0  0  0  0  0  0  0
   -0.8662    1.3441    1.4328 H   0  0  0  0  0  0  0  0  0  0  0  0
   -0.3539   -0.3577    1.6421 H   0  0  0  0  0  0  0  0  0  0  0  0
    1.6606    0.5360    1.3363 H   0  0  0  0  0  0  0  0  0  0  0  0
    1.4158    2.2350    0.5527 H   0  0  0  0  0  0  0  0  0  0  0  0
    1.8887    1.0586   -1.7295 H   0  0  0  0  0  0  0  0  0  0  0  0
    3.9169   -0.1832   -1.5462 H   0  0  0  0  0  0  0  0  0  0  0  0
    4.1087    0.9989   -0.2298 H   0  0  0  0  0  0  0  0  0  0  0  0
    4.1852   -0.6163    1.1552 H   0  0  0  0  0  0  0  0  0  0  0  0
    0.7599   -1.0346   -1.4562 H   0  0  0  0  0  0  0  0  0  0  0  0
    1.2802   -1.1687    0.3268 H   0  0  0  0  0  0  0  0  0  0  0  0
   -2.6067   -3.3169   -0.0697 H   0  0  0  0  0  0  0  0  0  0  0  0
  1  2  1  0
  2  3  1  1
  2  4  1  0
  4  5  1  0
  5  6  1  0
  6  7  1  0
  7  8  1  0
  8  9  1  0
  7 10  1  0
  2 11  1  0
 11 12  2  0
 11 13  1  0
 10  5  1  0
  1 14  1  0
  1 15  1  0
  1 16  1  0
  3 17  1  0
  4 18  1  0
  4 19  1  0
  6 20  1  0
  6 21  1  0
  7 22  1  0
  8 23  1  0
  8 24  1  0
  9 25  1  0
 10 26  1  0
 10 27  1  0
 13 28  1  0
M  END
$$$$

     RDKit          3D

 28 28  0  0  0  0  0  0  0  0999 V2000
   -3.1962    0.8133   -0.7307 C   0  0  0  0  0  0  0  0  0  0  0  0
   -2.0586    0.4556    0.2261 C   0  0  2  0  0  0  0  0  0  0  0  0
   -2.2376    1.1341    1.4341 O   0  0  0  0  0  0  0  0  0  0  0  0
   -0.7676    0.8648   -0.4360 C   0  0  0  0  0  0  0  0  0  0  0  0
    0.3661    0.5679    0.4198 N   0  0  0  0  0  0  0  0  0  0  0  0
    1.6364    0.9466   -0.1655 C   0  0  0  0  0  0  0  0  0  0  0  0
    2.2408   -0.2567    0.5268 C   0  0  0  0  0  0  0  0  0  0  0  0
    3.3120   -0.9592   -0.2731 C   0  0  0  0  0  0  0  0  0  0  0  0
    4.3374   -0.0279   -0.5103 O   0  0  0  0  0  0  0  0  0  0  0  0
    0.8324   -0.8242    0.3120 C   0  0  0  0  0  0  0  0  0  0  0  0
   -2.1384   -0.9961    0.4850 C   0  0  0  0  0  0  0  0  0  0  0  0
   -2.3338   -1.4885    1.6399 O   0  0  0  0  0  0  0  0  0  0  0  0
   -1.9933   -1.8712   -0.5850 O   0  0  0  0  0  0  0  0  0  0  0  0
   -4.0239    1.3222   -0.1680 H   0  0  0  0  0  0  0  0  0  0  0  0
   -3.6022   -0.0973   -1.2068 H   0  0  0  0  0  0  0  0  0  0  0  0
   -2.8359    1.4784   -1.5331 H   0  0  0  0  0  0  0  0  0  0  0  0
   -1.5121    1.7967    1.5530 H   0  0  0  0  0  0  0  0  0  0  0  0
   -0.6500    0.2813   -1.3656 H   0  0  0  0  0  0  0  0  0  0  0  0
   -0.8069    1.9508   -0.6206 H   0  0  0  0  0  0  0  0  0  0  0  0
    1.9749    1.9206    0.2205 H   0  0  0  0  0  0  0  0  0  0  0  0
    1.6330    0.8364   -1.2758 H   0  0  0  0  0  0  0  0  0  0  0  0
    2.4529   -0.1029    1.5831 H   0  0  0  0  0  0  0  0  0  0  0  0
    2.9247   -1.3137   -1.2356 H   0  0  0  0  0  0  0  0  0  0  0  0
    3.7496   -1.7722    0.3336 H   0  0  0  0  0  0  0  0  0  0  0  0
    3.9473    0.8669   -0.6004 H   0  0  0  0  0  0  0  0  0  0  0  0
    0.4774   -1.4938    1.0961 H   0  0  0  0  0  0  0  0  0  0  0  0
    0.6786   -1.2450   -0.6956 H   0  0  0  0  0  0  0  0  0  0  0  0
   -2.4069   -2.7869   -0.5992 H   0  0  0  0  0  0  0  0  0  0  0  0
  1  2  1  0
  2  3  1  1
  2  4  1  0
  4  5  1  0
  5  6  1  0
  6  7  1  0
  7  8  1  0
  8  9  1  0
  7 10  1  0
  2 11  1  0
 11 12  2  0
 11 13  1  0
 10  5  1  0
  1 14  1  0
  1 15  1  0
  1 16  1  0
  3 17  1  0
  4 18  1  0
  4 19  1  0
  6 20  1  0
  6 21  1  0
  7 22  1  0
  8 23  1  0
  8 24  1  0
  9 25  1  0
 10 26  1  0
 10 27  1  0
 13 28  1  0
M  END
$$$$

     RDKit          3D

 28 28  0  0  0  0  0  0  0  0999 V2000
    2.8402   -0.8228    1.2329 C   0  0  0  0  0  0  0  0  0  0  0  0
    1.8819   -0.0918    0.2711 C   0  0  2  0  0  0  0  0  0  0  0  0
    1.7311    1.1870    0.7504 O   0  0  0  0  0  0  0  0  0  0  0  0
    0.5924   -0.8636    0.1583 C   0  0  0  0  0  0  0  0  0  0  0  0
   -0.3182   -0.2156   -0.7034 N   0  0  0  0  0  0  0  0  0  0  0  0
   -0.9556    1.0113   -0.2569 C   0  0  0  0  0  0  0  0  0  0  0  0
   -2.0880    0.1524    0.3055 C   0  0  0  0  0  0  0  0  0  0  0  0
   -3.4113    0.8228    0.1530 C   0  0  0  0  0  0  0  0  0  0  0  0
   -4.4528    0.0368    0.6590 O   0  0  0  0  0  0  0  0  0  0  0  0
   -1.6566   -0.7716   -0.8246 C   0  0  0  0  0  0  0  0  0  0  0  0
    2.5926   -0.0345   -1.0311 C   0  0  0  0  0  0  0  0  0  0  0  0
    2.7952   -1.1429   -1.6344 O   0  0  0  0  0  0  0  0  0  0  0  0
    3.0303    1.1472   -1.5968 O   0  0  0  0  0  0  0  0  0  0  0  0
    3.4491   -0.1298    1.8179 H   0  0  0  0  0  0  0  0  0  0  0  0
    2.2231   -1.4320    1.9331 H   0  0  0  0  0  0  0  0  0  0  0  0
    3.5031   -1.5000    0.6686 H   0  0  0  0  0  0  0  0  0  0  0  0
    2.5814    1.5009    1.1874 H   0  0  0  0  0  0  0  0  0  0  0  0
    0.2051   -1.0280    1.1931 H   0  0  0  0  0  0  0  0  0  0  0  0
    0.8077   -1.8755   -0.2330 H   0  0  0  0  0  0  0  0  0  0  0  0
   -1.2999    1.5863   -1.1519 H   0  0  0  0  0  0  0  0  0  0  0  0
   -0.4779    1.6014    0.5124 H   0  0  0  0  0  0  0  0  0  0  0  0
   -1.8703   -0.2466    1.3087 H   0  0  0  0  0  0  0  0  0  0  0  0
   -3.4349    1.7641    0.7492 H   0  0  0  0  0  0  0  0  0  0  0  0
   -3.5967    1.0702   -0.9133 H   0  0  0  0  0  0  0  0  0  0  0  0
   -4.6691   -0.7034    0.0136 H   0  0  0  0  0  0  0  0  0  0  0  0
   -1.7820   -1.8319   -0.6760 H   0  0  0  0  0  0  0  0  0  0  0  0
   -2.1012   -0.3659   -1.7865 H   0  0  0  0  0  0  0  0  0  0  0  0
    3.8811    1.1756   -2.1597 H   0  0  0  0  0  0  0  0  0  0  0  0
  1  2  1  0
  2  3  1  1
  2  4  1  0
  4  5  1  0
  5  6  1  0
  6  7  1  0
  7  8  1  0
  8  9  1  0
  7 10  1  0
  2 11  1  0
 11 12  2  0
 11 13  1  0
 10  5  1  0
  1 14  1  0
  1 15  1  0
  1 16  1  0
  3 17  1  0
  4 18  1  0
  4 19  1  0
  6 20  1  0
  6 21  1  0
  7 22  1  0
  8 23  1  0
  8 24  1  0
  9 25  1  0
 10 26  1  0
 10 27  1  0
 13 28  1  0
M  END
$$$$

     RDKit          3D

 28 28  0  0  0  0  0  0  0  0999 V2000
   -2.7749   -1.1329    0.7471 C   0  0  0  0  0  0  0  0  0  0  0  0
   -2.1504   -0.2503   -0.3177 C   0  0  2  0  0  0  0  0  0  0  0  0
   -2.8851   -0.5352   -1.5009 O   0  0  0  0  0  0  0  0  0  0  0  0
   -0.7449   -0.6120   -0.6178 C   0  0  0  0  0  0  0  0  0  0  0  0
    0.2286   -0.4168    0.4068 N   0  0  0  0  0  0  0  0  0  0  0  0
    1.5046   -1.0366    0.0349 C   0  0  0  0  0  0  0  0  0  0  0  0
    2.1619    0.2616   -0.2335 C   0  0  0  0  0  0  0  0  0  0  0  0
    3.4313    0.5350    0.5368 C   0  0  0  0  0  0  0  0  0  0  0  0
    4.3465   -0.4914    0.1944 O   0  0  0  0  0  0  0  0  0  0  0  0
    0.9314    0.8295    0.4560 C   0  0  0  0  0  0  0  0  0  0  0  0
   -2.3681    1.1495    0.0102 C   0  0  0  0  0  0  0  0  0  0  0  0
   -3.0932    1.9074   -0.7377 O   0  0  0  0  0  0  0  0  0  0  0  0
   -1.8424    1.8033    1.1234 O   0  0  0  0  0  0  0  0  0  0  0  0
   -2.5666   -0.8050    1.7718 H   0  0  0  0  0  0  0  0  0  0  0  0
   -2.4307   -2.1893    0.6182 H   0  0  0  0  0  0  0  0  0  0  0  0
   -3.8649   -1.1213    0.5670 H   0  0  0  0  0  0  0  0  0  0  0  0
   -3.8359   -0.6786   -1.2622 H   0  0  0  0  0  0  0  0  0  0  0  0
   -0.4531   -0.0488   -1.5510 H   0  0  0  0  0  0  0  0  0  0  0  0
   -0.7390   -1.6895   -0.9399 H   0  0  0  0  0  0  0  0  0  0  0  0
    1.8771   -1.5840    0.9317 H   0  0  0  0  0  0  0  0  0  0  0  0
    1.3870   -1.7238   -0.8105 H   0  0  0  0  0  0  0  0  0  0  0  0
    2.2766    0.5758   -1.2870 H   0  0  0  0  0  0  0  0  0  0  0  0
    3.8186    1.5017    0.1972 H   0  0  0  0  0  0  0  0  0  0  0  0
    3.2847    0.4683    1.6254 H   0  0  0  0  0  0  0  0  0  0  0  0
    4.7713   -0.2870   -0.6695 H   0  0  0  0  0  0  0  0  0  0  0  0
    1.1771    1.0993    1.5061 H   0  0  0  0  0  0  0  0  0  0  0  0
    0.5415    1.6861   -0.1162 H   0  0  0  0  0  0  0  0  0  0  0  0
   -1.9888    2.7846    1.2889 H   0  0  0  0  0  0  0  0  0  0  0  0
  1  2  1  0
  2  3  1  6
  2  4  1  0
  4  5  1  0
  5  6  1  0
  6  7  1  0
  7  8  1  0
  8  9  1  0
  7 10  1  0
  2 11  1  0
 11 12  2  0
 11 13  1  0
 10  5  1  0
  1 14  1  0
  1 15  1  0
  1 16  1  0
  3 17  1  0
  4 18  1  0
  4 19  1  0
  6 20  1  0
  6 21  1  0
  7 22  1  0
  8 23  1  0
  8 24  1  0
  9 25  1  0
 10 26  1  0
 10 27  1  0
 13 28  1  0
M  END
$$$$

     RDKit          3D

 28 28  0  0  0  0  0  0  0  0999 V2000
   -3.2137   -0.8788    0.6065 C   0  0  0  0  0  0  0  0  0  0  0  0
   -1.9171   -0.6199   -0.1510 C   0  0  2  0  0  0  0  0  0  0  0  0
   -1.9981   -1.4048   -1.3037 O   0  0  0  0  0  0  0  0  0  0  0  0
   -0.7189   -0.9987    0.6731 C   0  0  0  0  0  0  0  0  0  0  0  0
    0.4683   -0.8256   -0.0764 N   0  0  0  0  0  0  0  0  0  0  0  0
    0.9113    0.4773   -0.4363 C   0  0  0  0  0  0  0  0  0  0  0  0
    2.3444   -0.0794   -0.3712 C   0  0  0  0  0  0  0  0  0  0  0  0
    3.2873    0.9065    0.2304 C   0  0  0  0  0  0  0  0  0  0  0  0
    3.2882    2.0559   -0.5480 O   0  0  0  0  0  0  0  0  0  0  0  0
    1.7224   -1.0862    0.6031 C   0  0  0  0  0  0  0  0  0  0  0  0
   -1.9400    0.7930   -0.5427 C   0  0  0  0  0  0  0  0  0  0  0  0
   -2.0224    1.1111   -1.7585 O   0  0  0  0  0  0  0  0  0  0  0  0
   -1.8743    1.8369    0.3761 O   0  0  0  0  0  0  0  0  0  0  0  0
   -3.1709   -1.8692    1.0608 H   0  0  0  0  0  0  0  0  0  0  0  0
   -3.3202   -0.0653    1.3480 H   0  0  0  0  0  0  0  0  0  0  0  0
   -4.0482   -0.8506   -0.1182 H   0  0  0  0  0  0  0  0  0  0  0  0
   -2.5807   -0.9233   -1.9424 H   0  0  0  0  0  0  0  0  0  0  0  0
   -0.7289   -0.5098    1.6622 H   0  0  0  0  0  0  0  0  0  0  0  0
   -0.8182   -2.1008    0.8896 H   0  0  0  0  0  0  0  0  0  0  0  0
    0.7998    1.2924    0.2995 H   0  0  0  0  0  0  0  0  0  0  0  0
    0.6751    0.7387   -1.4689 H   0  0  0  0  0  0  0  0  0  0  0  0
    2.6794   -0.5371   -1.3065 H   0  0  0  0  0  0  0  0  0  0  0  0
    4.3151    0.4973    0.2350 H   0  0  0  0  0  0  0  0  0  0  0  0
    2.9483    1.2061    1.2443 H   0  0  0  0  0  0  0  0  0  0  0  0
    2.7517    1.9249   -1.3728 H   0  0  0  0  0  0  0  0  0  0  0  0
    2.0373   -2.1294    0.4061 H   0  0  0  0  0  0  0  0  0  0  0  0
    1.7695   -0.7440    1.6531 H   0  0  0  0  0  0  0  0  0  0  0  0
   -1.6464    2.7828    0.1090 H   0  0  0  0  0  0  0  0  0  0  0  0
  1  2  1  0
  2  3  1  6
  2  4  1  0
  4  5  1  0
  5  6  1  0
  6  7  1  0
  7  8  1  0
  8  9  1  0
  7 10  1  0
  2 11  1  0
 11 12  2  0
 11 13  1  0
 10  5  1  0
  1 14  1  0
  1 15  1  0
  1 16  1  0
  3 17  1  0
  4 18  1  0
  4 19  1  0
  6 20  1  0
  6 21  1  0
  7 22  1  0
  8 23  1  0
  8 24  1  0
  9 25  1  0
 10 26  1  0
 10 27  1  0
 13 28  1  0
M  END
$$$$

     RDKit          3D

 28 28  0  0  0  0  0  0  0  0999 V2000
   -2.0224   -0.2949    1.4214 C   0  0  0  0  0  0  0  0  0  0  0  0
   -2.0807   -0.5201   -0.0700 C   0  0  2  0  0  0  0  0  0  0  0  0
   -2.8512   -1.7079   -0.2132 O   0  0  0  0  0  0  0  0  0  0  0  0
   -0.7737   -0.8376   -0.7069 C   0  0  0  0  0  0  0  0  0  0  0  0
    0.2179    0.1673   -0.7235 N   0  0  0  0  0  0  0  0  0  0  0  0
    0.8547    0.5872    0.4724 C   0  0  0  0  0  0  0  0  0  0  0  0
    2.1705   -0.0624    0.0962 C   0  0  0  0  0  0  0  0  0  0  0  0
    3.3446    0.8539   -0.0527 C   0  0  0  0  0  0  0  0  0  0  0  0
    4.4665    0.1006   -0.3979 O   0  0  0  0  0  0  0  0  0  0  0  0
    1.4830   -0.3518   -1.2032 C   0  0  0  0  0  0  0  0  0  0  0  0
   -2.8051    0.5920   -0.6800 C   0  0  0  0  0  0  0  0  0  0  0  0
   -3.9065    0.3940   -1.2392 O   0  0  0  0  0  0  0  0  0  0  0  0
   -2.3123    1.8821   -0.6632 O   0  0  0  0  0  0  0  0  0  0  0  0
   -1.4277   -1.0910    1.9339 H   0  0  0  0  0  0  0  0  0  0  0  0
   -1.7771    0.7247    1.7188 H   0  0  0  0  0  0  0  0  0  0  0  0
   -3.0804   -0.4683    1.7860 H   0  0  0  0  0  0  0  0  0  0  0  0
   -3.7271   -1.5821    0.2259 H   0  0  0  0  0  0  0  0  0  0  0  0
   -0.4194   -1.7980   -0.2685 H   0  0  0  0  0  0  0  0  0  0  0  0
   -1.0064   -1.0999   -1.7793 H   0  0  0  0  0  0  0  0  0  0  0  0
    0.5257    0.1742    1.4359 H   0  0  0  0  0  0  0  0  0  0  0  0
    1.0162    1.7057    0.4964 H   0  0  0  0  0  0  0  0  0  0  0  0
    2.4534   -0.9426    0.7072 H   0  0  0  0  0  0  0  0  0  0  0  0
    3.5979    1.4214    0.8404 H   0  0  0  0  0  0  0  0  0  0  0  0
    3.2002    1.5756   -0.8952 H   0  0  0  0  0  0  0  0  0  0  0  0
    4.3869   -0.8453   -0.1539 H   0  0  0  0  0  0  0  0  0  0  0  0
    1.8986    0.1616   -2.0962 H   0  0  0  0  0  0  0  0  0  0  0  0
    1.4972   -1.4470   -1.3938 H   0  0  0  0  0  0  0  0  0  0  0  0
   -2.9232    2.7087   -0.6628 H   0  0  0  0  0  0  0  0  0  0  0  0
  1  2  1  0
  2  3  1  1
  2  4  1  0
  4  5  1  0
  5  6  1  0
  6  7  1  0
  7  8  1  0
  8  9  1  0
  7 10  1  0
  2 11  1  0
 11 12  2  0
 11 13  1  0
 10  5  1  0
  1 14  1  0
  1 15  1  0
  1 16  1  0
  3 17  1  0
  4 18  1  0
  4 19  1  0
  6 20  1  0
  6 21  1  0
  7 22  1  0
  8 23  1  0
  8 24  1  0
  9 25  1  0
 10 26  1  0
 10 27  1  0
 13 28  1  0
M  END
$$$$
