
     RDKit          3D

 27 27  0  0  0  0  0  0  0  0999 V2000
    0.7034   -2.3793    0.4284 C   0  0  0  0  0  0  0  0  0  0  0  0
    0.9155   -0.9287    0.7101 C   0  0  2  0  0  0  0  0  0  0  0  0
   -0.3355   -0.2399    0.8054 N   0  0  0  0  0  0  0  0  0  0  0  0
   -1.0944    0.0256   -0.2102 C   0  0  0  0  0  0  0  0  0  0  0  0
   -0.9076   -0.2594   -1.5086 N   0  0  0  0  0  0  0  0  0  0  0  0
   -1.9304    0.1910   -2.2251 C   0  0  0  0  0  0  0  0  0  0  0  0
   -2.7777    0.7715   -1.3574 N   0  0  0  0  0  0  0  0  0  0  0  0
   -2.2636    0.6683   -0.1289 N   0  0  0  0  0  0  0  0  0  0  0  0
   -2.8895    1.1765    1.0716 C   0  0  0  0  0  0  0  0  0  0  0  0
    1.8762   -0.2857   -0.2742 C   0  0  2  0  0  0  0  0  0  0  0  0
    3.0328   -1.0428   -0.2692 O   0  0  0  0  0  0  0  0  0  0  0  0
    2.1681    1.1448    0.1859 C   0  0  0  0  0  0  0  0  0  0  0  0
    3.0903    1.7484   -0.6582 O   0  0  0  0  0  0  0  0  0  0  0  0
    1.2022   -3.0383    1.1618 H   0  0  0  0  0  0  0  0  0  0  0  0
    1.1041   -2.6397   -0.5913 H   0  0  0  0  0  0  0  0  0  0  0  0
   -0.3827   -2.6221    0.4678 H   0  0  0  0  0  0  0  0  0  0  0  0
    1.4143   -0.8438    1.7146 H   0  0  0  0  0  0  0  0  0  0  0  0
   -2.1224    0.1425   -3.2976 H   0  0  0  0  0  0  0  0  0  0  0  0
   -3.6803    1.2233   -1.6074 H   0  0  0  0  0  0  0  0  0  0  0  0
   -2.2071    1.8883    1.5558 H   0  0  0  0  0  0  0  0  0  0  0  0
   -3.8822    1.6013    0.8471 H   0  0  0  0  0  0  0  0  0  0  0  0
   -3.0081    0.3022    1.7720 H   0  0  0  0  0  0  0  0  0  0  0  0
    1.4623   -0.2158   -1.2932 H   0  0  0  0  0  0  0  0  0  0  0  0
    3.1079   -1.6382   -1.0545 H   0  0  0  0  0  0  0  0  0  0  0  0
    1.2192    1.7086    0.2760 H   0  0  0  0  0  0  0  0  0  0  0  0
    2.6127    1.0584    1.2007 H   0  0  0  0  0  0  0  0  0  0  0  0
    3.5726    2.4831   -0.2254 H   0  0  0  0  0  0  0  0  0  0  0  0
  1  2  1  0
  2  3  1  0
  3  4  2  3
  4  5  1  0
  5  6  2  0
  6  7  1  0
  7  8  1  0
  8  9  1  0
  2 10  1  0
 10 11  1  0
 10 12  1  0
 12 13  1  0
  8  4  1  0
  1 14  1  0
  1 15  1  0
  1 16  1  0
  2 17  1  1
  6 18  1  0
  7 19  1  0
  9 20  1  0
  9 21  1  0
  9 22  1  0
 10 23  1  6
 11 24  1  0
 12 25  1  0
 12 26  1  0
 13 27  1  0
M  END
$$$$

     RDKit          3D

 27 27  0  0  0  0  0  0  0  0999 V2000
    1.0892    1.3048   -1.2529 C   0  0  0  0  0  0  0  0  0  0  0  0
    1.0072   -0.1571   -0.9517 C   0  0  2  0  0  0  0  0  0  0  0  0
   -0.3666   -0.5546   -0.8423 N   0  0  0  0  0  0  0  0  0  0  0  0
   -1.2398    0.0465   -0.1156 C   0  0  0  0  0  0  0  0  0  0  0  0
   -1.1263    1.1237    0.6791 N   0  0  0  0  0  0  0  0  0  0  0  0
   -2.3351    1.3767    1.2393 C   0  0  0  0  0  0  0  0  0  0  0  0
   -3.1664    0.4528    0.7796 N   0  0  0  0  0  0  0  0  0  0  0  0
   -2.5207   -0.3464   -0.0308 N   0  0  0  0  0  0  0  0  0  0  0  0
   -3.1189   -1.4762   -0.7195 C   0  0  0  0  0  0  0  0  0  0  0  0
    1.7574   -0.5572    0.2841 C   0  0  2  0  0  0  0  0  0  0  0  0
    1.2148    0.0431    1.4019 O   0  0  0  0  0  0  0  0  0  0  0  0
    3.2160   -0.2252    0.2212 C   0  0  0  0  0  0  0  0  0  0  0  0
    3.8189   -0.7154    1.3862 O   0  0  0  0  0  0  0  0  0  0  0  0
    0.3229    1.5360   -2.0322 H   0  0  0  0  0  0  0  0  0  0  0  0
    2.0976    1.5513   -1.6287 H   0  0  0  0  0  0  0  0  0  0  0  0
    0.8713    1.9199   -0.3507 H   0  0  0  0  0  0  0  0  0  0  0  0
    1.4475   -0.7214   -1.8029 H   0  0  0  0  0  0  0  0  0  0  0  0
   -2.5615    2.1826    1.9280 H   0  0  0  0  0  0  0  0  0  0  0  0
   -4.1868    0.3653    1.0207 H   0  0  0  0  0  0  0  0  0  0  0  0
   -3.7965   -2.0363   -0.0433 H   0  0  0  0  0  0  0  0  0  0  0  0
   -3.7507   -1.0789   -1.5664 H   0  0  0  0  0  0  0  0  0  0  0  0
   -2.3628   -2.1458   -1.1444 H   0  0  0  0  0  0  0  0  0  0  0  0
    1.6778   -1.6692    0.3699 H   0  0  0  0  0  0  0  0  0  0  0  0
    1.7363    0.8401    1.6988 H   0  0  0  0  0  0  0  0  0  0  0  0
    3.3151    0.8882    0.2656 H   0  0  0  0  0  0  0  0  0  0  0  0
    3.7292   -0.6235   -0.6581 H   0  0  0  0  0  0  0  0  0  0  0  0
    3.2311   -1.3239    1.8652 H   0  0  0  0  0  0  0  0  0  0  0  0
  1  2  1  0
  2  3  1  0
  3  4  2  3
  4  5  1  0
  5  6  2  0
  6  7  1  0
  7  8  1  0
  8  9  1  0
  2 10  1  0
 10 11  1  0
 10 12  1  0
 12 13  1  0
  8  4  1  0
  1 14  1  0
  1 15  1  0
  1 16  1  0
  2 17  1  6
  6 18  1  0
  7 19  1  0
  9 20  1  0
  9 21  1  0
  9 22  1  0
 10 23  1  1
 11 24  1  0
 12 25  1  0
 12 26  1  0
 13 27  1  0
M  END
$$$$

     RDKit          3D

 27 27  0  0  0  0  0  0  0  0999 V2000
   -0.8724   -1.6498    1.4928 C   0  0  0  0  0  0  0  0  0  0  0  0
   -1.1158   -1.0275    0.1155 C   0  0  2  0  0  0  0  0  0  0  0  0
    0.1395   -0.6663   -0.4625 N   0  0  0  0  0  0  0  0  0  0  0  0
    1.0799   -0.0348    0.1578 C   0  0  0  0  0  0  0  0  0  0  0  0
    1.1344    0.4178    1.4073 N   0  0  0  0  0  0  0  0  0  0  0  0
    2.3294    1.0099    1.5816 C   0  0  0  0  0  0  0  0  0  0  0  0
    3.0182    0.9223    0.4304 N   0  0  0  0  0  0  0  0  0  0  0  0
    2.2431    0.2826   -0.4285 N   0  0  0  0  0  0  0  0  0  0  0  0
    2.6568   -0.0050   -1.8052 C   0  0  0  0  0  0  0  0  0  0  0  0
   -2.0507    0.1306    0.3259 C   0  0  2  0  0  0  0  0  0  0  0  0
   -3.2261   -0.4004    0.8967 O   0  0  0  0  0  0  0  0  0  0  0  0
   -2.4719    0.7599   -0.9865 C   0  0  0  0  0  0  0  0  0  0  0  0
   -1.3431    1.3047   -1.5990 O   0  0  0  0  0  0  0  0  0  0  0  0
   -0.0308   -2.3541    1.4221 H   0  0  0  0  0  0  0  0  0  0  0  0
   -0.7068   -0.8426    2.2374 H   0  0  0  0  0  0  0  0  0  0  0  0
   -1.8277   -2.1429    1.7829 H   0  0  0  0  0  0  0  0  0  0  0  0
   -1.5786   -1.8056   -0.5254 H   0  0  0  0  0  0  0  0  0  0  0  0
    2.6899    1.4852    2.4995 H   0  0  0  0  0  0  0  0  0  0  0  0
    3.9956    1.3016    0.2666 H   0  0  0  0  0  0  0  0  0  0  0  0
    1.8762   -0.5914   -2.3156 H   0  0  0  0  0  0  0  0  0  0  0  0
    2.8931    0.9538   -2.2823 H   0  0  0  0  0  0  0  0  0  0  0  0
    3.6019   -0.6068   -1.7801 H   0  0  0  0  0  0  0  0  0  0  0  0
   -1.6063    0.8615    1.0032 H   0  0  0  0  0  0  0  0  0  0  0  0
   -3.4235   -1.2418    0.4135 H   0  0  0  0  0  0  0  0  0  0  0  0
   -3.1681    1.6035   -0.8075 H   0  0  0  0  0  0  0  0  0  0  0  0
   -2.9701    0.0602   -1.6548 H   0  0  0  0  0  0  0  0  0  0  0  0
   -1.2662    2.2754   -1.3859 H   0  0  0  0  0  0  0  0  0  0  0  0
  1  2  1  0
  2  3  1  0
  3  4  2  3
  4  5  1  0
  5  6  2  0
  6  7  1  0
  7  8  1  0
  8  9  1  0
  2 10  1  0
 10 11  1  0
 10 12  1  0
 12 13  1  0
  8  4  1  0
  1 14  1  0
  1 15  1  0
  1 16  1  0
  2 17  1  6
  6 18  1  0
  7 19  1  0
  9 20  1  0
  9 21  1  0
  9 22  1  0
 10 23  1  1
 11 24  1  0
 12 25  1  0
 12 26  1  0
 13 27  1  0
M  END
$$$$

     RDKit          3D

 27 27  0  0  0  0  0  0  0  0999 V2000
   -0.2697   -1.8685   -0.2678 C   0  0  0  0  0  0  0  0  0  0  0  0
   -0.7501   -0.4391   -0.4593 C   0  0  2  0  0  0  0  0  0  0  0  0
   -0.2205    0.3682    0.5571 N   0  0  0  0  0  0  0  0  0  0  0  0
    0.9148    0.7129    0.9182 C   0  0  0  0  0  0  0  0  0  0  0  0
    1.1296    1.5357    1.9802 N   0  0  0  0  0  0  0  0  0  0  0  0
    2.4267    1.7355    2.1393 C   0  0  0  0  0  0  0  0  0  0  0  0
    3.0430    1.0389    1.1767 N   0  0  0  0  0  0  0  0  0  0  0  0
    2.1149    0.4118    0.4280 N   0  0  0  0  0  0  0  0  0  0  0  0
    2.4857   -0.4154   -0.6842 C   0  0  0  0  0  0  0  0  0  0  0  0
   -2.2872   -0.5013   -0.3112 C   0  0  2  0  0  0  0  0  0  0  0  0
   -2.8138   -1.3034   -1.3214 O   0  0  0  0  0  0  0  0  0  0  0  0
   -2.8701    0.8930   -0.3936 C   0  0  0  0  0  0  0  0  0  0  0  0
   -2.3028    1.6569    0.6481 O   0  0  0  0  0  0  0  0  0  0  0  0
    0.2924   -2.2405   -1.1645 H   0  0  0  0  0  0  0  0  0  0  0  0
   -1.1017   -2.5916   -0.1412 H   0  0  0  0  0  0  0  0  0  0  0  0
    0.4076   -1.9720    0.5938 H   0  0  0  0  0  0  0  0  0  0  0  0
   -0.5150   -0.1233   -1.5099 H   0  0  0  0  0  0  0  0  0  0  0  0
    2.9356    2.3419    2.8941 H   0  0  0  0  0  0  0  0  0  0  0  0
    4.0826    0.9755    1.0111 H   0  0  0  0  0  0  0  0  0  0  0  0
    3.5192   -0.1649   -1.0365 H   0  0  0  0  0  0  0  0  0  0  0  0
    2.5842   -1.4726   -0.3207 H   0  0  0  0  0  0  0  0  0  0  0  0
    1.8301   -0.3085   -1.5595 H   0  0  0  0  0  0  0  0  0  0  0  0
   -2.5431   -0.9541    0.6497 H   0  0  0  0  0  0  0  0  0  0  0  0
   -3.1247   -2.1843   -0.9562 H   0  0  0  0  0  0  0  0  0  0  0  0
   -2.6663    1.3886   -1.3412 H   0  0  0  0  0  0  0  0  0  0  0  0
   -3.9562    0.8699   -0.1789 H   0  0  0  0  0  0  0  0  0  0  0  0
   -2.3455    2.6105    0.3341 H   0  0  0  0  0  0  0  0  0  0  0  0
  1  2  1  0
  2  3  1  0
  3  4  2  3
  4  5  1  0
  5  6  2  0
  6  7  1  0
  7  8  1  0
  8  9  1  0
  2 10  1  0
 10 11  1  0
 10 12  1  0
 12 13  1  0
  8  4  1  0
  1 14  1  0
  1 15  1  0
  1 16  1  0
  2 17  1  6
  6 18  1  0
  7 19  1  0
  9 20  1  0
  9 21  1  0
  9 22  1  0
 10 23  1  1
 11 24  1  0
 12 25  1  0
 12 26  1  0
 13 27  1  0
M  END
$$$$

     RDKit          3D

 27 27  0  0  0  0  0  0  0  0999 V2000
    0.6545    1.7447   -0.1162 C   0  0  0  0  0  0  0  0  0  0  0  0
    0.6545    0.2344   -0.0303 C   0  0  2  0  0  0  0  0  0  0  0  0
   -0.2428   -0.1274    1.0161 N   0  0  0  0  0  0  0  0  0  0  0  0
   -1.4759   -0.4037    0.9848 C   0  0  0  0  0  0  0  0  0  0  0  0
   -2.1251   -0.7262    2.1459 N   0  0  0  0  0  0  0  0  0  0  0  0
   -3.3898   -0.9697    1.8460 C   0  0  0  0  0  0  0  0  0  0  0  0
   -3.5462   -0.8084    0.5348 N   0  0  0  0  0  0  0  0  0  0  0  0
   -2.3724   -0.4615    0.0086 N   0  0  0  0  0  0  0  0  0  0  0  0
   -2.1324   -0.1965   -1.3932 C   0  0  0  0  0  0  0  0  0  0  0  0
    2.0417   -0.2827    0.3527 C   0  0  2  0  0  0  0  0  0  0  0  0
    2.4956    0.2503    1.5320 O   0  0  0  0  0  0  0  0  0  0  0  0
    3.0229   -0.0296   -0.7712 C   0  0  0  0  0  0  0  0  0  0  0  0
    4.2289   -0.6471   -0.3861 O   0  0  0  0  0  0  0  0  0  0  0  0
    1.6420    2.1807    0.1085 H   0  0  0  0  0  0  0  0  0  0  0  0
   -0.0976    2.2057    0.5545 H   0  0  0  0  0  0  0  0  0  0  0  0
    0.3624    2.0156   -1.1483 H   0  0  0  0  0  0  0  0  0  0  0  0
    0.4502   -0.1877   -1.0126 H   0  0  0  0  0  0  0  0  0  0  0  0
   -4.2083   -1.2606    2.5401 H   0  0  0  0  0  0  0  0  0  0  0  0
   -4.4272   -0.9261   -0.0197 H   0  0  0  0  0  0  0  0  0  0  0  0
   -3.1444   -0.1313   -1.9039 H   0  0  0  0  0  0  0  0  0  0  0  0
   -1.5800   -1.0231   -1.8697 H   0  0  0  0  0  0  0  0  0  0  0  0
   -1.6542    0.7731   -1.5244 H   0  0  0  0  0  0  0  0  0  0  0  0
    1.9581   -1.3832    0.4713 H   0  0  0  0  0  0  0  0  0  0  0  0
    2.8781    1.1472    1.3978 H   0  0  0  0  0  0  0  0  0  0  0  0
    3.1636    1.0699   -0.8838 H   0  0  0  0  0  0  0  0  0  0  0  0
    2.6722   -0.4812   -1.7073 H   0  0  0  0  0  0  0  0  0  0  0  0
    4.1717   -1.5755   -0.7263 H   0  0  0  0  0  0  0  0  0  0  0  0
  1  2  1  0
  2  3  1  0
  3  4  2  3
  4  5  1  0
  5  6  2  0
  6  7  1  0
  7  8  1  0
  8  9  1  0
  2 10  1  0
 10 11  1  0
 10 12  1  0
 12 13  1  0
  8  4  1  0
  1 14  1  0
  1 15  1  0
  1 16  1  0
  2 17  1  6
  6 18  1  0
  7 19  1  0
  9 20  1  0
  9 21  1  0
  9 22  1  0
 10 23  1  1
 11 24  1  0
 12 25  1  0
 12 26  1  0
 13 27  1  0
M  END
$$$$

     RDKit          3D

 27 27  0  0  0  0  0  0  0  0999 V2000
   -0.9256   -1.1855    1.4056 C   0  0  0  0  0  0  0  0  0  0  0  0
   -0.7002   -0.7567   -0.0228 C   0  0  2  0  0  0  0  0  0  0  0  0
   -0.1131    0.5052   -0.1817 N   0  0  0  0  0  0  0  0  0  0  0  0
    1.0700    0.9032   -0.2888 C   0  0  0  0  0  0  0  0  0  0  0  0
    1.3913    2.2185   -0.4380 N   0  0  0  0  0  0  0  0  0  0  0  0
    2.7224    2.3457   -0.5268 C   0  0  0  0  0  0  0  0  0  0  0  0
    3.2430    1.1169   -0.4344 N   0  0  0  0  0  0  0  0  0  0  0  0
    2.2320    0.2474   -0.2901 N   0  0  0  0  0  0  0  0  0  0  0  0
    2.3941   -1.1816   -0.1575 C   0  0  0  0  0  0  0  0  0  0  0  0
   -2.0871   -0.6731   -0.6889 C   0  0  2  0  0  0  0  0  0  0  0  0
   -1.8900   -0.3603   -2.0128 O   0  0  0  0  0  0  0  0  0  0  0  0
   -2.8621    0.4280   -0.0009 C   0  0  0  0  0  0  0  0  0  0  0  0
   -2.1830    1.6440   -0.0613 O   0  0  0  0  0  0  0  0  0  0  0  0
   -0.7109   -0.3954    2.1367 H   0  0  0  0  0  0  0  0  0  0  0  0
   -1.9724   -1.5157    1.5639 H   0  0  0  0  0  0  0  0  0  0  0  0
   -0.3049   -2.1044    1.6227 H   0  0  0  0  0  0  0  0  0  0  0  0
   -0.1669   -1.5309   -0.5746 H   0  0  0  0  0  0  0  0  0  0  0  0
    3.3083    3.2625   -0.6515 H   0  0  0  0  0  0  0  0  0  0  0  0
    4.2738    0.8785   -0.4697 H   0  0  0  0  0  0  0  0  0  0  0  0
    3.4733   -1.4074    0.0153 H   0  0  0  0  0  0  0  0  0  0  0  0
    2.1460   -1.6846   -1.1234 H   0  0  0  0  0  0  0  0  0  0  0  0
    1.8481   -1.5801    0.7060 H   0  0  0  0  0  0  0  0  0  0  0  0
   -2.5846   -1.6290   -0.5257 H   0  0  0  0  0  0  0  0  0  0  0  0
   -2.7589   -0.1116   -2.4381 H   0  0  0  0  0  0  0  0  0  0  0  0
   -3.8461    0.5508   -0.4705 H   0  0  0  0  0  0  0  0  0  0  0  0
   -3.0296    0.1886    1.0662 H   0  0  0  0  0  0  0  0  0  0  0  0
   -1.9669    1.8267   -1.0025 H   0  0  0  0  0  0  0  0  0  0  0  0
  1  2  1  0
  2  3  1  0
  3  4  2  3
  4  5  1  0
  5  6  2  0
  6  7  1  0
  7  8  1  0
  8  9  1  0
  2 10  1  0
 10 11  1  0
 10 12  1  0
 12 13  1  0
  8  4  1  0
  1 14  1  0
  1 15  1  0
  1 16  1  0
  2 17  1  6
  6 18  1  0
  7 19  1  0
  9 20  1  0
  9 21  1  0
  9 22  1  0
 10 23  1  6
 11 24  1  0
 12 25  1  0
 12 26  1  0
 13 27  1  0
M  END
$$$$

     RDKit          3D

 27 27  0  0  0  0  0  0  0  0999 V2000
    0.6760   -1.5123   -1.2811 C   0  0  0  0  0  0  0  0  0  0  0  0
    1.0298   -0.4365   -0.2661 C   0  0  2  0  0  0  0  0  0  0  0  0
   -0.1118    0.4363   -0.1638 N   0  0  0  0  0  0  0  0  0  0  0  0
   -1.2854   -0.1364   -0.0380 C   0  0  0  0  0  0  0  0  0  0  0  0
   -1.5732   -1.4464    0.0093 N   0  0  0  0  0  0  0  0  0  0  0  0
   -2.8900   -1.6287    0.1440 C   0  0  0  0  0  0  0  0  0  0  0  0
   -3.4454   -0.4080    0.1826 N   0  0  0  0  0  0  0  0  0  0  0  0
   -2.4756    0.4783    0.0729 N   0  0  0  0  0  0  0  0  0  0  0  0
   -2.6879    1.9293    0.0738 C   0  0  0  0  0  0  0  0  0  0  0  0
    2.2665    0.2479   -0.7481 C   0  0  2  0  0  0  0  0  0  0  0  0
    3.2858   -0.7133   -0.7981 O   0  0  0  0  0  0  0  0  0  0  0  0
    2.7439    1.3288    0.1968 C   0  0  0  0  0  0  0  0  0  0  0  0
    2.9854    0.8256    1.4699 O   0  0  0  0  0  0  0  0  0  0  0  0
    0.4664   -2.4777   -0.7672 H   0  0  0  0  0  0  0  0  0  0  0  0
    1.5431   -1.7231   -1.9631 H   0  0  0  0  0  0  0  0  0  0  0  0
   -0.1510   -1.1911   -1.9443 H   0  0  0  0  0  0  0  0  0  0  0  0
    1.1620   -0.9181    0.7258 H   0  0  0  0  0  0  0  0  0  0  0  0
   -3.4267   -2.5887    0.2113 H   0  0  0  0  0  0  0  0  0  0  0  0
   -4.4893   -0.2170    0.2848 H   0  0  0  0  0  0  0  0  0  0  0  0
   -1.9139    2.4519    0.6464 H   0  0  0  0  0  0  0  0  0  0  0  0
   -3.6753    2.1588    0.5183 H   0  0  0  0  0  0  0  0  0  0  0  0
   -2.7373    2.2408   -0.9936 H   0  0  0  0  0  0  0  0  0  0  0  0
    2.1071    0.6411   -1.7511 H   0  0  0  0  0  0  0  0  0  0  0  0
    3.1148   -1.3479   -0.0558 H   0  0  0  0  0  0  0  0  0  0  0  0
    2.0466    2.1662    0.2857 H   0  0  0  0  0  0  0  0  0  0  0  0
    3.7247    1.6983   -0.1861 H   0  0  0  0  0  0  0  0  0  0  0  0
    3.7109    0.1419    1.4766 H   0  0  0  0  0  0  0  0  0  0  0  0
  1  2  1  0
  2  3  1  0
  3  4  2  3
  4  5  1  0
  5  6  2  0
  6  7  1  0
  7  8  1  0
  8  9  1  0
  2 10  1  0
 10 11  1  0
 10 12  1  0
 12 13  1  0
  8  4  1  0
  1 14  1  0
  1 15  1  0
  1 16  1  0
  2 17  1  1
  6 18  1  0
  7 19  1  0
  9 20  1  0
  9 21  1  0
  9 22  1  0
 10 23  1  6
 11 24  1  0
 12 25  1  0
 12 26  1  0
 13 27  1  0
M  END
$$$$

     RDKit          3D

 27 27  0  0  0  0  0  0  0  0999 V2000
   -1.6753   -0.2057    1.8140 C   0  0  0  0  0  0  0  0  0  0  0  0
   -0.9375   -0.2214    0.4957 C   0  0  2  0  0  0  0  0  0  0  0  0
    0.3642    0.4275    0.6023 N   0  0  0  0  0  0  0  0  0  0  0  0
    1.3607   -0.1071   -0.0263 C   0  0  0  0  0  0  0  0  0  0  0  0
    1.3484   -1.2275   -0.7946 N   0  0  0  0  0  0  0  0  0  0  0  0
    2.5816   -1.4606   -1.2774 C   0  0  0  0  0  0  0  0  0  0  0  0
    3.3450   -0.4676   -0.7932 N   0  0  0  0  0  0  0  0  0  0  0  0
    2.6249    0.3545   -0.0389 N   0  0  0  0  0  0  0  0  0  0  0  0
    3.1702    1.5226    0.6230 C   0  0  0  0  0  0  0  0  0  0  0  0
   -1.7378    0.4596   -0.5943 C   0  0  2  0  0  0  0  0  0  0  0  0
   -1.9518    1.7993   -0.3550 O   0  0  0  0  0  0  0  0  0  0  0  0
   -3.0598   -0.2864   -0.6967 C   0  0  0  0  0  0  0  0  0  0  0  0
   -2.7297   -1.6367   -0.9404 O   0  0  0  0  0  0  0  0  0  0  0  0
   -2.1923    0.7507    1.9747 H   0  0  0  0  0  0  0  0  0  0  0  0
   -2.3950   -1.0528    1.8310 H   0  0  0  0  0  0  0  0  0  0  0  0
   -0.9171   -0.3379    2.6357 H   0  0  0  0  0  0  0  0  0  0  0  0
   -0.8192   -1.2830    0.1934 H   0  0  0  0  0  0  0  0  0  0  0  0
    2.8383   -2.2944   -1.9187 H   0  0  0  0  0  0  0  0  0  0  0  0
    4.3509   -0.3708   -0.9895 H   0  0  0  0  0  0  0  0  0  0  0  0
    2.6198    1.7467    1.5509 H   0  0  0  0  0  0  0  0  0  0  0  0
    3.1969    2.4160   -0.0163 H   0  0  0  0  0  0  0  0  0  0  0  0
    4.2281    1.2815    0.9127 H   0  0  0  0  0  0  0  0  0  0  0  0
   -1.1995    0.2679   -1.5497 H   0  0  0  0  0  0  0  0  0  0  0  0
   -2.0884    2.2569   -1.2227 H   0  0  0  0  0  0  0  0  0  0  0  0
   -3.7015    0.1074   -1.5086 H   0  0  0  0  0  0  0  0  0  0  0  0
   -3.5443   -0.2196    0.2914 H   0  0  0  0  0  0  0  0  0  0  0  0
   -3.0798   -2.2190   -0.2025 H   0  0  0  0  0  0  0  0  0  0  0  0
  1  2  1  0
  2  3  1  0
  3  4  2  3
  4  5  1  0
  5  6  2  0
  6  7  1  0
  7  8  1  0
  8  9  1  0
  2 10  1  0
 10 11  1  0
 10 12  1  0
 12 13  1  0
  8  4  1  0
  1 14  1  0
  1 15  1  0
  1 16  1  0
  2 17  1  6
  6 18  1  0
  7 19  1  0
  9 20  1  0
  9 21  1  0
  9 22  1  0
 10 23  1  6
 11 24  1  0
 12 25  1  0
 12 26  1  0
 13 27  1  0
M  END
$$$$
