
     RDKit          3D

 28 28  0  0  0  0  0  0  0  0999 V2000
    3.4822    1.0998   -1.0585 C   0  0  0  0  0  0  0  0  0  0  0  0
    3.5348    0.4828    0.3229 C   0  0  0  0  0  0  0  0  0  0  0  0
    2.2292    0.4974    0.8975 N   0  0  0  0  0  0  0  0  0  0  0  0
    1.2631   -0.3597    0.2827 C   0  0  0  0  0  0  0  0  0  0  0  0
   -0.0324   -0.1760    1.0387 C   0  0  0  0  0  0  0  0  0  0  0  0
   -1.1182   -0.9573    0.5626 N   0  0  0  0  0  0  0  0  0  0  0  0
   -1.1944   -2.3860    0.6669 C   0  0  0  0  0  0  0  0  0  0  0  0
   -2.2058   -0.2668   -0.0608 C   0  0  0  0  0  0  0  0  0  0  0  0
   -2.7229   -0.5934   -1.1907 N   0  0  0  0  0  0  0  0  0  0  0  0
   -3.7853    0.2726   -1.5566 C   0  0  0  0  0  0  0  0  0  0  0  0
   -4.5269    0.2783   -2.5736 O   0  0  0  0  0  0  0  0  0  0  0  0
   -3.8891    1.2377   -0.4734 C   0  0  0  0  0  0  0  0  0  0  0  0
   -4.6688    2.2084   -0.3178 O   0  0  0  0  0  0  0  0  0  0  0  0
   -2.8926    0.8875    0.4594 N   0  0  0  0  0  0  0  0  0  0  0  0
    4.4936    1.3427   -1.4475 H   0  0  0  0  0  0  0  0  0  0  0  0
    2.8570    2.0193   -0.9849 H   0  0  0  0  0  0  0  0  0  0  0  0
    2.9389    0.3986   -1.7159 H   0  0  0  0  0  0  0  0  0  0  0  0
    4.1599    1.1914    0.9433 H   0  0  0  0  0  0  0  0  0  0  0  0
    4.0370   -0.4905    0.3485 H   0  0  0  0  0  0  0  0  0  0  0  0
    1.8646    1.4460    1.1088 H   0  0  0  0  0  0  0  0  0  0  0  0
    1.0768   -0.0753   -0.7743 H   0  0  0  0  0  0  0  0  0  0  0  0
    1.5427   -1.4254    0.3031 H   0  0  0  0  0  0  0  0  0  0  0  0
    0.1863   -0.5203    2.0923 H   0  0  0  0  0  0  0  0  0  0  0  0
   -0.2793    0.8987    1.0653 H   0  0  0  0  0  0  0  0  0  0  0  0
   -0.4428   -2.9219    0.0629 H   0  0  0  0  0  0  0  0  0  0  0  0
   -1.0966   -2.6320    1.7611 H   0  0  0  0  0  0  0  0  0  0  0  0
   -2.1862   -2.7640    0.3725 H   0  0  0  0  0  0  0  0  0  0  0  0
   -2.6247    1.3071    1.3660 H   0  0  0  0  0  0  0  0  0  0  0  0
  1  2  1  0
  2  3  1  0
  3  4  1  0
  4  5  1  0
  5  6  1  0
  6  7  1  0
  6  8  1  0
  8  9  2  0
  9 10  1  0
 10 11  2  0
 10 12  1  0
 12 13  2  0
 12 14  1  0
 14  8  1  0
  1 15  1  0
  1 16  1  0
  1 17  1  0
  2 18  1  0
  2 19  1  0
  3 20  1  0
  4 21  1  0
  4 22  1  0
  5 23  1  0
  5 24  1  0
  7 25  1  0
  7 26  1  0
  7 27  1  0
 14 28  1  0
M  END
$$$$

     RDKit          3D

 28 28  0  0  0  0  0  0  0  0999 V2000
   -4.1693    0.0847    0.8502 C   0  0  0  0  0  0  0  0  0  0  0  0
   -2.9842   -0.7983    0.5616 C   0  0  0  0  0  0  0  0  0  0  0  0
   -1.9163   -0.0662   -0.1288 N   0  0  0  0  0  0  0  0  0  0  0  0
   -0.8602   -1.0201   -0.3487 C   0  0  0  0  0  0  0  0  0  0  0  0
    0.3314   -0.4639   -1.0604 C   0  0  0  0  0  0  0  0  0  0  0  0
    1.0068    0.6109   -0.4308 N   0  0  0  0  0  0  0  0  0  0  0  0
    0.4062    1.9331   -0.2835 C   0  0  0  0  0  0  0  0  0  0  0  0
    2.3207    0.4018    0.0798 C   0  0  0  0  0  0  0  0  0  0  0  0
    3.2813    1.2857    0.0462 N   0  0  0  0  0  0  0  0  0  0  0  0
    4.4660    0.7828    0.6299 C   0  0  0  0  0  0  0  0  0  0  0  0
    5.5612    1.3712    0.7562 O   0  0  0  0  0  0  0  0  0  0  0  0
    4.1820   -0.5720    1.0691 C   0  0  0  0  0  0  0  0  0  0  0  0
    4.9087   -1.4107    1.6351 O   0  0  0  0  0  0  0  0  0  0  0  0
    2.8075   -0.7877    0.7052 N   0  0  0  0  0  0  0  0  0  0  0  0
   -5.0852   -0.5721    0.7839 H   0  0  0  0  0  0  0  0  0  0  0  0
   -4.2065    0.9143    0.1389 H   0  0  0  0  0  0  0  0  0  0  0  0
   -4.1828    0.4644    1.8975 H   0  0  0  0  0  0  0  0  0  0  0  0
   -3.3076   -1.5823   -0.1511 H   0  0  0  0  0  0  0  0  0  0  0  0
   -2.5522   -1.2700    1.4623 H   0  0  0  0  0  0  0  0  0  0  0  0
   -2.3335    0.2574   -1.0307 H   0  0  0  0  0  0  0  0  0  0  0  0
   -0.6162   -1.4895    0.6232 H   0  0  0  0  0  0  0  0  0  0  0  0
   -1.2699   -1.8274   -0.9903 H   0  0  0  0  0  0  0  0  0  0  0  0
    1.0414   -1.2967   -1.2288 H   0  0  0  0  0  0  0  0  0  0  0  0
    0.0328   -0.1467   -2.1007 H   0  0  0  0  0  0  0  0  0  0  0  0
   -0.0246    2.2714   -1.2513 H   0  0  0  0  0  0  0  0  0  0  0  0
   -0.3331    1.9335    0.5316 H   0  0  0  0  0  0  0  0  0  0  0  0
    1.1992    2.6766   -0.0280 H   0  0  0  0  0  0  0  0  0  0  0  0
    2.2966   -1.6843    0.8910 H   0  0  0  0  0  0  0  0  0  0  0  0
  1  2  1  0
  2  3  1  0
  3  4  1  0
  4  5  1  0
  5  6  1  0
  6  7  1  0
  6  8  1  0
  8  9  2  0
  9 10  1  0
 10 11  2  0
 10 12  1  0
 12 13  2  0
 12 14  1  0
 14  8  1  0
  1 15  1  0
  1 16  1  0
  1 17  1  0
  2 18  1  0
  2 19  1  0
  3 20  1  0
  4 21  1  0
  4 22  1  0
  5 23  1  0
  5 24  1  0
  7 25  1  0
  7 26  1  0
  7 27  1  0
 14 28  1  0
M  END
$$$$

     RDKit          3D

 28 28  0  0  0  0  0  0  0  0999 V2000
   -4.5506    0.7958    0.1881 C   0  0  0  0  0  0  0  0  0  0  0  0
   -3.3971    0.1507   -0.5934 C   0  0  0  0  0  0  0  0  0  0  0  0
   -2.2686    0.1745    0.3156 N   0  0  0  0  0  0  0  0  0  0  0  0
   -1.0665   -0.4034   -0.2990 C   0  0  0  0  0  0  0  0  0  0  0  0
    0.0073   -0.2985    0.7623 C   0  0  0  0  0  0  0  0  0  0  0  0
    1.2795   -0.8037    0.3592 N   0  0  0  0  0  0  0  0  0  0  0  0
    1.4923   -2.2009    0.1383 C   0  0  0  0  0  0  0  0  0  0  0  0
    2.3764    0.1180    0.1657 C   0  0  0  0  0  0  0  0  0  0  0  0
    2.3075    1.3860    0.3860 N   0  0  0  0  0  0  0  0  0  0  0  0
    3.5289    2.0484    0.1140 C   0  0  0  0  0  0  0  0  0  0  0  0
    3.7560    3.2944    0.2394 O   0  0  0  0  0  0  0  0  0  0  0  0
    4.4591    1.0204   -0.3341 C   0  0  0  0  0  0  0  0  0  0  0  0
    5.6617    1.1798   -0.6788 O   0  0  0  0  0  0  0  0  0  0  0  0
    3.6869   -0.1839   -0.2851 N   0  0  0  0  0  0  0  0  0  0  0  0
   -4.8694    0.1099    0.9986 H   0  0  0  0  0  0  0  0  0  0  0  0
   -5.3724    0.9696   -0.5333 H   0  0  0  0  0  0  0  0  0  0  0  0
   -4.2185    1.7615    0.6213 H   0  0  0  0  0  0  0  0  0  0  0  0
   -3.7223   -0.8904   -0.8009 H   0  0  0  0  0  0  0  0  0  0  0  0
   -3.2337    0.7632   -1.4963 H   0  0  0  0  0  0  0  0  0  0  0  0
   -2.0849    1.2088    0.4943 H   0  0  0  0  0  0  0  0  0  0  0  0
   -0.7694    0.1581   -1.2067 H   0  0  0  0  0  0  0  0  0  0  0  0
   -1.2606   -1.4529   -0.5883 H   0  0  0  0  0  0  0  0  0  0  0  0
    0.1071    0.7786    1.0039 H   0  0  0  0  0  0  0  0  0  0  0  0
   -0.3790   -0.7960    1.6968 H   0  0  0  0  0  0  0  0  0  0  0  0
    2.5148   -2.4514   -0.1969 H   0  0  0  0  0  0  0  0  0  0  0  0
    0.7093   -2.5570   -0.5872 H   0  0  0  0  0  0  0  0  0  0  0  0
    1.2552   -2.7446    1.0987 H   0  0  0  0  0  0  0  0  0  0  0  0
    4.0507   -1.1349   -0.5462 H   0  0  0  0  0  0  0  0  0  0  0  0
  1  2  1  0
  2  3  1  0
  3  4  1  0
  4  5  1  0
  5  6  1  0
  6  7  1  0
  6  8  1  0
  8  9  2  0
  9 10  1  0
 10 11  2  0
 10 12  1  0
 12 13  2  0
 12 14  1  0
 14  8  1  0
  1 15  1  0
  1 16  1  0
  1 17  1  0
  2 18  1  0
  2 19  1  0
  3 20  1  0
  4 21  1  0
  4 22  1  0
  5 23  1  0
  5 24  1  0
  7 25  1  0
  7 26  1  0
  7 27  1  0
 14 28  1  0
M  END
$$$$

     RDKit          3D

 28 28  0  0  0  0  0  0  0  0999 V2000
   -4.3676    0.0936    0.7640 C   0  0  0  0  0  0  0  0  0  0  0  0
   -3.1219    0.0418   -0.1072 C   0  0  0  0  0  0  0  0  0  0  0  0
   -2.1502   -0.7547    0.5982 N   0  0  0  0  0  0  0  0  0  0  0  0
   -0.9151   -0.9469   -0.1052 C   0  0  0  0  0  0  0  0  0  0  0  0
   -0.1669    0.3525   -0.1889 C   0  0  0  0  0  0  0  0  0  0  0  0
    1.0965    0.2098   -0.8825 N   0  0  0  0  0  0  0  0  0  0  0  0
    1.1116   -0.0792   -2.2928 C   0  0  0  0  0  0  0  0  0  0  0  0
    2.3180    0.3540   -0.1831 C   0  0  0  0  0  0  0  0  0  0  0  0
    3.0692    1.4164   -0.1659 N   0  0  0  0  0  0  0  0  0  0  0  0
    4.2183    1.2544    0.6178 C   0  0  0  0  0  0  0  0  0  0  0  0
    5.1359    2.1171    0.8230 O   0  0  0  0  0  0  0  0  0  0  0  0
    4.1499   -0.0954    1.1476 C   0  0  0  0  0  0  0  0  0  0  0  0
    4.9806   -0.6436    1.8968 O   0  0  0  0  0  0  0  0  0  0  0  0
    2.9525   -0.6529    0.6388 N   0  0  0  0  0  0  0  0  0  0  0  0
   -4.4418    1.0553    1.3260 H   0  0  0  0  0  0  0  0  0  0  0  0
   -4.3904   -0.7741    1.4316 H   0  0  0  0  0  0  0  0  0  0  0  0
   -5.2575    0.0118    0.1115 H   0  0  0  0  0  0  0  0  0  0  0  0
   -2.7222    1.0564   -0.2427 H   0  0  0  0  0  0  0  0  0  0  0  0
   -3.3967   -0.4323   -1.0653 H   0  0  0  0  0  0  0  0  0  0  0  0
   -1.9902   -0.3184    1.5310 H   0  0  0  0  0  0  0  0  0  0  0  0
   -1.0757   -1.4127   -1.1009 H   0  0  0  0  0  0  0  0  0  0  0  0
   -0.2700   -1.6380    0.5003 H   0  0  0  0  0  0  0  0  0  0  0  0
    0.0032    0.6776    0.8784 H   0  0  0  0  0  0  0  0  0  0  0  0
   -0.7881    1.1524   -0.6280 H   0  0  0  0  0  0  0  0  0  0  0  0
    1.7099    0.7159   -2.7809 H   0  0  0  0  0  0  0  0  0  0  0  0
    1.6668   -1.0342   -2.5118 H   0  0  0  0  0  0  0  0  0  0  0  0
    0.0968   -0.1137   -2.7358 H   0  0  0  0  0  0  0  0  0  0  0  0
    2.5451   -1.6129    0.7913 H   0  0  0  0  0  0  0  0  0  0  0  0
  1  2  1  0
  2  3  1  0
  3  4  1  0
  4  5  1  0
  5  6  1  0
  6  7  1  0
  6  8  1  0
  8  9  2  0
  9 10  1  0
 10 11  2  0
 10 12  1  0
 12 13  2  0
 12 14  1  0
 14  8  1  0
  1 15  1  0
  1 16  1  0
  1 17  1  0
  2 18  1  0
  2 19  1  0
  3 20  1  0
  4 21  1  0
  4 22  1  0
  5 23  1  0
  5 24  1  0
  7 25  1  0
  7 26  1  0
  7 27  1  0
 14 28  1  0
M  END
$$$$

     RDKit          3D

 28 28  0  0  0  0  0  0  0  0999 V2000
    4.1366    0.4132   -0.7992 C   0  0  0  0  0  0  0  0  0  0  0  0
    2.9430   -0.4350   -1.0683 C   0  0  0  0  0  0  0  0  0  0  0  0
    1.9293   -0.3263   -0.0337 N   0  0  0  0  0  0  0  0  0  0  0  0
    0.8065   -1.1708   -0.3440 C   0  0  0  0  0  0  0  0  0  0  0  0
   -0.3010   -1.1150    0.6557 C   0  0  0  0  0  0  0  0  0  0  0  0
   -0.8751    0.1868    0.8218 N   0  0  0  0  0  0  0  0  0  0  0  0
   -0.2043    1.3085    1.4132 C   0  0  0  0  0  0  0  0  0  0  0  0
   -2.2287    0.3763    0.3500 C   0  0  0  0  0  0  0  0  0  0  0  0
   -2.6551    1.4119   -0.2868 N   0  0  0  0  0  0  0  0  0  0  0  0
   -4.0299    1.3148   -0.6221 C   0  0  0  0  0  0  0  0  0  0  0  0
   -4.7140    2.1705   -1.2411 O   0  0  0  0  0  0  0  0  0  0  0  0
   -4.4819    0.0300   -0.1060 C   0  0  0  0  0  0  0  0  0  0  0  0
   -5.6422   -0.4581   -0.1858 O   0  0  0  0  0  0  0  0  0  0  0  0
   -3.3158   -0.5285    0.4988 N   0  0  0  0  0  0  0  0  0  0  0  0
    4.9732   -0.1319   -0.3176 H   0  0  0  0  0  0  0  0  0  0  0  0
    3.8510    1.3365   -0.2141 H   0  0  0  0  0  0  0  0  0  0  0  0
    4.5305    0.7920   -1.7671 H   0  0  0  0  0  0  0  0  0  0  0  0
    3.2582   -1.4547   -1.2830 H   0  0  0  0  0  0  0  0  0  0  0  0
    2.4601   -0.0488   -2.0143 H   0  0  0  0  0  0  0  0  0  0  0  0
    2.3434   -0.4951    0.8832 H   0  0  0  0  0  0  0  0  0  0  0  0
    1.2024   -2.2298   -0.3144 H   0  0  0  0  0  0  0  0  0  0  0  0
    0.4793   -1.0307   -1.3988 H   0  0  0  0  0  0  0  0  0  0  0  0
   -1.0934   -1.8211    0.3470 H   0  0  0  0  0  0  0  0  0  0  0  0
    0.1106   -1.5178    1.6101 H   0  0  0  0  0  0  0  0  0  0  0  0
   -0.7913    2.2284    1.2261 H   0  0  0  0  0  0  0  0  0  0  0  0
    0.8081    1.4942    1.0278 H   0  0  0  0  0  0  0  0  0  0  0  0
   -0.2206    1.1554    2.5165 H   0  0  0  0  0  0  0  0  0  0  0  0
   -3.2792   -1.4550    0.9718 H   0  0  0  0  0  0  0  0  0  0  0  0
  1  2  1  0
  2  3  1  0
  3  4  1  0
  4  5  1  0
  5  6  1  0
  6  7  1  0
  6  8  1  0
  8  9  2  0
  9 10  1  0
 10 11  2  0
 10 12  1  0
 12 13  2  0
 12 14  1  0
 14  8  1  0
  1 15  1  0
  1 16  1  0
  1 17  1  0
  2 18  1  0
  2 19  1  0
  3 20  1  0
  4 21  1  0
  4 22  1  0
  5 23  1  0
  5 24  1  0
  7 25  1  0
  7 26  1  0
  7 27  1  0
 14 28  1  0
M  END
$$$$

     RDKit          3D

 28 28  0  0  0  0  0  0  0  0999 V2000
    4.0922    0.2086   -0.0771 C   0  0  0  0  0  0  0  0  0  0  0  0
    3.0741   -0.8642   -0.4134 C   0  0  0  0  0  0  0  0  0  0  0  0
    1.8816   -0.7388    0.4124 N   0  0  0  0  0  0  0  0  0  0  0  0
    1.1926    0.4564    0.0391 C   0  0  0  0  0  0  0  0  0  0  0  0
   -0.0591    0.7544    0.7787 C   0  0  0  0  0  0  0  0  0  0  0  0
   -1.1111   -0.2076    0.6806 N   0  0  0  0  0  0  0  0  0  0  0  0
   -0.9771   -1.5067    1.2781 C   0  0  0  0  0  0  0  0  0  0  0  0
   -2.3284    0.0850   -0.0044 C   0  0  0  0  0  0  0  0  0  0  0  0
   -3.0491   -0.8038   -0.6274 N   0  0  0  0  0  0  0  0  0  0  0  0
   -4.1938   -0.2240   -1.2094 C   0  0  0  0  0  0  0  0  0  0  0  0
   -5.1180   -0.7490   -1.8824 O   0  0  0  0  0  0  0  0  0  0  0  0
   -4.1365    1.1897   -0.8854 C   0  0  0  0  0  0  0  0  0  0  0  0
   -4.9699    2.1010   -1.2097 O   0  0  0  0  0  0  0  0  0  0  0  0
   -2.9520    1.3647   -0.1242 N   0  0  0  0  0  0  0  0  0  0  0  0
    4.1423    1.0074   -0.8271 H   0  0  0  0  0  0  0  0  0  0  0  0
    3.8708    0.5660    0.9445 H   0  0  0  0  0  0  0  0  0  0  0  0
    5.1018   -0.2470   -0.0381 H   0  0  0  0  0  0  0  0  0  0  0  0
    2.8654   -0.8947   -1.4913 H   0  0  0  0  0  0  0  0  0  0  0  0
    3.5350   -1.8384   -0.1168 H   0  0  0  0  0  0  0  0  0  0  0  0
    2.1751   -0.7491    1.4183 H   0  0  0  0  0  0  0  0  0  0  0  0
    0.9302    0.3701   -1.0443 H   0  0  0  0  0  0  0  0  0  0  0  0
    1.8755    1.3321    0.1931 H   0  0  0  0  0  0  0  0  0  0  0  0
    0.1243    0.9423    1.8804 H   0  0  0  0  0  0  0  0  0  0  0  0
   -0.4155    1.7702    0.4223 H   0  0  0  0  0  0  0  0  0  0  0  0
    0.0607   -1.8188    1.4587 H   0  0  0  0  0  0  0  0  0  0  0  0
   -1.5782   -1.5543    2.2350 H   0  0  0  0  0  0  0  0  0  0  0  0
   -1.3886   -2.2361    0.5457 H   0  0  0  0  0  0  0  0  0  0  0  0
   -2.6445    2.2845    0.2536 H   0  0  0  0  0  0  0  0  0  0  0  0
  1  2  1  0
  2  3  1  0
  3  4  1  0
  4  5  1  0
  5  6  1  0
  6  7  1  0
  6  8  1  0
  8  9  2  0
  9 10  1  0
 10 11  2  0
 10 12  1  0
 12 13  2  0
 12 14  1  0
 14  8  1  0
  1 15  1  0
  1 16  1  0
  1 17  1  0
  2 18  1  0
  2 19  1  0
  3 20  1  0
  4 21  1  0
  4 22  1  0
  5 23  1  0
  5 24  1  0
  7 25  1  0
  7 26  1  0
  7 27  1  0
 14 28  1  0
M  END
$$$$

     RDKit          3D

 28 28  0  0  0  0  0  0  0  0999 V2000
   -3.9569    1.4512   -0.2925 C   0  0  0  0  0  0  0  0  0  0  0  0
   -2.5048    1.0052   -0.4711 C   0  0  0  0  0  0  0  0  0  0  0  0
   -2.4163   -0.4139   -0.3453 N   0  0  0  0  0  0  0  0  0  0  0  0
   -1.1002   -0.9745   -0.5044 C   0  0  0  0  0  0  0  0  0  0  0  0
   -0.2468   -0.5681    0.6625 C   0  0  0  0  0  0  0  0  0  0  0  0
    1.0925   -1.0919    0.5992 N   0  0  0  0  0  0  0  0  0  0  0  0
    1.3821   -2.5045    0.7359 C   0  0  0  0  0  0  0  0  0  0  0  0
    2.1787   -0.1772    0.3949 C   0  0  0  0  0  0  0  0  0  0  0  0
    3.3825   -0.5092    0.0271 N   0  0  0  0  0  0  0  0  0  0  0  0
    4.2451    0.5919   -0.0948 C   0  0  0  0  0  0  0  0  0  0  0  0
    5.4635    0.6189   -0.4292 O   0  0  0  0  0  0  0  0  0  0  0  0
    3.4665    1.7730    0.2458 C   0  0  0  0  0  0  0  0  0  0  0  0
    3.8294    2.9733    0.2732 O   0  0  0  0  0  0  0  0  0  0  0  0
    2.1749    1.2368    0.5462 N   0  0  0  0  0  0  0  0  0  0  0  0
   -3.9740    2.1514    0.5645 H   0  0  0  0  0  0  0  0  0  0  0  0
   -4.3424    1.9584   -1.2043 H   0  0  0  0  0  0  0  0  0  0  0  0
   -4.5819    0.5483   -0.1104 H   0  0  0  0  0  0  0  0  0  0  0  0
   -1.8605    1.4894    0.2877 H   0  0  0  0  0  0  0  0  0  0  0  0
   -2.2095    1.3706   -1.4903 H   0  0  0  0  0  0  0  0  0  0  0  0
   -3.1312   -0.9007   -0.8970 H   0  0  0  0  0  0  0  0  0  0  0  0
   -0.6501   -0.5960   -1.4475 H   0  0  0  0  0  0  0  0  0  0  0  0
   -1.1471   -2.0767   -0.5977 H   0  0  0  0  0  0  0  0  0  0  0  0
   -0.1735    0.5265    0.7798 H   0  0  0  0  0  0  0  0  0  0  0  0
   -0.7032   -1.0341    1.5912 H   0  0  0  0  0  0  0  0  0  0  0  0
    1.3168   -2.9770   -0.2866 H   0  0  0  0  0  0  0  0  0  0  0  0
    0.6804   -3.0362    1.3999 H   0  0  0  0  0  0  0  0  0  0  0  0
    2.4277   -2.6627    1.1179 H   0  0  0  0  0  0  0  0  0  0  0  0
    1.3583    1.8274    0.8372 H   0  0  0  0  0  0  0  0  0  0  0  0
  1  2  1  0
  2  3  1  0
  3  4  1  0
  4  5  1  0
  5  6  1  0
  6  7  1  0
  6  8  1  0
  8  9  2  0
  9 10  1  0
 10 11  2  0
 10 12  1  0
 12 13  2  0
 12 14  1  0
 14  8  1  0
  1 15  1  0
  1 16  1  0
  1 17  1  0
  2 18  1  0
  2 19  1  0
  3 20  1  0
  4 21  1  0
  4 22  1  0
  5 23  1  0
  5 24  1  0
  7 25  1  0
  7 26  1  0
  7 27  1  0
 14 28  1  0
M  END
$$$$

     RDKit          3D

 28 28  0  0  0  0  0  0  0  0999 V2000
    4.1227   -0.5350    0.3553 C   0  0  0  0  0  0  0  0  0  0  0  0
    3.5083    0.8531    0.2720 C   0  0  0  0  0  0  0  0  0  0  0  0
    2.2541    0.7483   -0.3917 N   0  0  0  0  0  0  0  0  0  0  0  0
    1.1940    0.1085    0.3149 C   0  0  0  0  0  0  0  0  0  0  0  0
    0.0153    0.0335   -0.6392 C   0  0  0  0  0  0  0  0  0  0  0  0
   -1.1409   -0.5766   -0.0507 N   0  0  0  0  0  0  0  0  0  0  0  0
   -1.1220   -1.9679    0.3009 C   0  0  0  0  0  0  0  0  0  0  0  0
   -2.3093    0.1767    0.1718 C   0  0  0  0  0  0  0  0  0  0  0  0
   -2.4524    1.2034    0.9414 N   0  0  0  0  0  0  0  0  0  0  0  0
   -3.7960    1.6873    0.8943 C   0  0  0  0  0  0  0  0  0  0  0  0
   -4.3134    2.6595    1.4995 O   0  0  0  0  0  0  0  0  0  0  0  0
   -4.5147    0.7953   -0.0456 C   0  0  0  0  0  0  0  0  0  0  0  0
   -5.7193    0.9152   -0.3374 O   0  0  0  0  0  0  0  0  0  0  0  0
   -3.5401   -0.1493   -0.4823 N   0  0  0  0  0  0  0  0  0  0  0  0
    3.3966   -1.2053    0.8025 H   0  0  0  0  0  0  0  0  0  0  0  0
    4.2468   -0.8473   -0.7250 H   0  0  0  0  0  0  0  0  0  0  0  0
    5.0998   -0.5524    0.8764 H   0  0  0  0  0  0  0  0  0  0  0  0
    4.2127    1.5563   -0.2669 H   0  0  0  0  0  0  0  0  0  0  0  0
    3.4462    1.2914    1.3168 H   0  0  0  0  0  0  0  0  0  0  0  0
    1.9625    1.5809   -0.9389 H   0  0  0  0  0  0  0  0  0  0  0  0
    0.9039    0.6410    1.2423 H   0  0  0  0  0  0  0  0  0  0  0  0
    1.4300   -0.9183    0.6293 H   0  0  0  0  0  0  0  0  0  0  0  0
    0.3354   -0.5620   -1.5213 H   0  0  0  0  0  0  0  0  0  0  0  0
   -0.2226    1.0769   -0.9166 H   0  0  0  0  0  0  0  0  0  0  0  0
   -1.9912   -2.3102    0.8858 H   0  0  0  0  0  0  0  0  0  0  0  0
   -0.1556   -2.2478    0.7744 H   0  0  0  0  0  0  0  0  0  0  0  0
   -1.1451   -2.5368   -0.6704 H   0  0  0  0  0  0  0  0  0  0  0  0
   -3.7058   -0.9185   -1.1425 H   0  0  0  0  0  0  0  0  0  0  0  0
  1  2  1  0
  2  3  1  0
  3  4  1  0
  4  5  1  0
  5  6  1  0
  6  7  1  0
  6  8  1  0
  8  9  2  0
  9 10  1  0
 10 11  2  0
 10 12  1  0
 12 13  2  0
 12 14  1  0
 14  8  1  0
  1 15  1  0
  1 16  1  0
  1 17  1  0
  2 18  1  0
  2 19  1  0
  3 20  1  0
  4 21  1  0
  4 22  1  0
  5 23  1  0
  5 24  1  0
  7 25  1  0
  7 26  1  0
  7 27  1  0
 14 28  1  0
M  END
$$$$
