
     RDKit          3D

 26 27  0  0  0  0  0  0  0  0999 V2000
    4.1965   -1.2228    0.4708 N   0  0  0  0  0  0  0  0  0  0  0  0
    3.1992   -0.4308    0.2373 C   0  0  0  0  0  0  0  0  0  0  0  0
    3.2217    0.8989    0.1280 N   0  0  0  0  0  0  0  0  0  0  0  0
    2.0141    1.3189   -0.1090 N   0  0  0  0  0  0  0  0  0  0  0  0
    1.1632    0.2646   -0.1611 C   0  0  0  0  0  0  0  0  0  0  0  0
   -0.0812    0.3981   -0.3799 N   0  0  0  0  0  0  0  0  0  0  0  0
   -1.0542   -0.6388   -0.4538 C   0  0  2  0  0  0  0  0  0  0  0  0
   -1.5258   -0.7238   -1.9052 C   0  0  0  0  0  0  0  0  0  0  0  0
   -2.0895    0.5022   -2.2937 O   0  0  0  0  0  0  0  0  0  0  0  0
   -2.2574   -0.3244    0.4146 C   0  0  0  0  0  0  0  0  0  0  0  0
   -1.9140   -0.1573    1.8944 C   0  0  0  0  0  0  0  0  0  0  0  0
   -2.3836    1.0046    1.0579 C   0  0  0  0  0  0  0  0  0  0  0  0
    1.9243   -0.8201    0.0579 N   0  0  0  0  0  0  0  0  0  0  0  0
    5.1496   -0.8057    0.5942 H   0  0  0  0  0  0  0  0  0  0  0  0
    4.0680    1.5328    0.2151 H   0  0  0  0  0  0  0  0  0  0  0  0
    1.7458    2.3329   -0.2399 H   0  0  0  0  0  0  0  0  0  0  0  0
   -0.7020   -1.6356   -0.1666 H   0  0  0  0  0  0  0  0  0  0  0  0
   -0.6508   -0.9718   -2.5402 H   0  0  0  0  0  0  0  0  0  0  0  0
   -2.3160   -1.4988   -1.9382 H   0  0  0  0  0  0  0  0  0  0  0  0
   -1.5090    1.2484   -2.0553 H   0  0  0  0  0  0  0  0  0  0  0  0
   -3.1911   -0.8553    0.1459 H   0  0  0  0  0  0  0  0  0  0  0  0
   -0.8680   -0.1319    2.1995 H   0  0  0  0  0  0  0  0  0  0  0  0
   -2.6200   -0.6594    2.5760 H   0  0  0  0  0  0  0  0  0  0  0  0
   -3.4026    1.3553    1.3106 H   0  0  0  0  0  0  0  0  0  0  0  0
   -1.6673    1.8270    0.8612 H   0  0  0  0  0  0  0  0  0  0  0  0
    1.5505   -1.8072    0.0796 H   0  0  0  0  0  0  0  0  0  0  0  0
  1  2  2  3
  2  3  1  0
  3  4  1  0
  4  5  1  0
  5  6  2  3
  6  7  1  0
  7  8  1  0
  8  9  1  0
  7 10  1  0
 10 11  1  0
 11 12  1  0
  5 13  1  0
 13  2  1  0
 12 10  1  0
  1 14  1  0
  3 15  1  0
  4 16  1  0
  7 17  1  1
  8 18  1  0
  8 19  1  0
  9 20  1  0
 10 21  1  0
 11 22  1  0
 11 23  1  0
 12 24  1  0
 12 25  1  0
 13 26  1  0
M  END
$$$$

     RDKit          3D

 26 27  0  0  0  0  0  0  0  0999 V2000
    3.6099   -1.4199   -1.3892 N   0  0  0  0  0  0  0  0  0  0  0  0
    2.9906   -0.7112   -0.5015 C   0  0  0  0  0  0  0  0  0  0  0  0
    3.4451   -0.1913    0.6509 N   0  0  0  0  0  0  0  0  0  0  0  0
    2.4553    0.4594    1.2336 N   0  0  0  0  0  0  0  0  0  0  0  0
    1.3629    0.3691    0.4746 C   0  0  0  0  0  0  0  0  0  0  0  0
    0.2077    0.8983    0.7553 N   0  0  0  0  0  0  0  0  0  0  0  0
   -0.9354    0.7682   -0.1005 C   0  0  2  0  0  0  0  0  0  0  0  0
   -1.7567    2.0591   -0.1600 C   0  0  0  0  0  0  0  0  0  0  0  0
   -2.8242    1.7772   -1.0236 O   0  0  0  0  0  0  0  0  0  0  0  0
   -1.8706   -0.3250    0.2810 C   0  0  0  0  0  0  0  0  0  0  0  0
   -1.4626   -1.7436    0.3415 C   0  0  0  0  0  0  0  0  0  0  0  0
   -2.2162   -1.2750   -0.8710 C   0  0  0  0  0  0  0  0  0  0  0  0
    1.7067   -0.3605   -0.6012 N   0  0  0  0  0  0  0  0  0  0  0  0
    4.6181   -1.6787   -1.2821 H   0  0  0  0  0  0  0  0  0  0  0  0
    4.4230   -0.3119    0.9809 H   0  0  0  0  0  0  0  0  0  0  0  0
    2.5253    0.9703    2.1582 H   0  0  0  0  0  0  0  0  0  0  0  0
   -0.5343    0.6445   -1.1485 H   0  0  0  0  0  0  0  0  0  0  0  0
   -1.1498    2.9018   -0.5237 H   0  0  0  0  0  0  0  0  0  0  0  0
   -2.1840    2.2582    0.8566 H   0  0  0  0  0  0  0  0  0  0  0  0
   -3.3561    2.5820   -1.2040 H   0  0  0  0  0  0  0  0  0  0  0  0
   -2.7042   -0.0172    0.9573 H   0  0  0  0  0  0  0  0  0  0  0  0
   -2.0497   -2.4152    0.9981 H   0  0  0  0  0  0  0  0  0  0  0  0
   -0.4007   -1.9957    0.2508 H   0  0  0  0  0  0  0  0  0  0  0  0
   -1.6740   -1.1580   -1.8256 H   0  0  0  0  0  0  0  0  0  0  0  0
   -3.2833   -1.4762   -0.9803 H   0  0  0  0  0  0  0  0  0  0  0  0
    1.0569   -0.6089   -1.3901 H   0  0  0  0  0  0  0  0  0  0  0  0
  1  2  2  3
  2  3  1  0
  3  4  1  0
  4  5  1  0
  5  6  2  3
  6  7  1  0
  7  8  1  0
  8  9  1  0
  7 10  1  0
 10 11  1  0
 11 12  1  0
  5 13  1  0
 13  2  1  0
 12 10  1  0
  1 14  1  0
  3 15  1  0
  4 16  1  0
  7 17  1  6
  8 18  1  0
  8 19  1  0
  9 20  1  0
 10 21  1  0
 11 22  1  0
 11 23  1  0
 12 24  1  0
 12 25  1  0
 13 26  1  0
M  END
$$$$

     RDKit          3D

 26 27  0  0  0  0  0  0  0  0999 V2000
    3.5703    1.8853    0.8452 N   0  0  0  0  0  0  0  0  0  0  0  0
    2.9703    0.7988    0.4923 C   0  0  0  0  0  0  0  0  0  0  0  0
    3.5530   -0.3139    0.0248 N   0  0  0  0  0  0  0  0  0  0  0  0
    2.5908   -1.2116   -0.2254 N   0  0  0  0  0  0  0  0  0  0  0  0
    1.4216   -0.6572    0.0856 C   0  0  0  0  0  0  0  0  0  0  0  0
    0.2771   -1.2136   -0.0208 N   0  0  0  0  0  0  0  0  0  0  0  0
   -0.9396   -0.5170    0.3474 C   0  0  2  0  0  0  0  0  0  0  0  0
   -1.8876   -1.5597    0.9036 C   0  0  0  0  0  0  0  0  0  0  0  0
   -2.1888   -2.5516   -0.0106 O   0  0  0  0  0  0  0  0  0  0  0  0
   -1.5036    0.1521   -0.8862 C   0  0  0  0  0  0  0  0  0  0  0  0
   -2.7514    0.9450   -0.8282 C   0  0  0  0  0  0  0  0  0  0  0  0
   -1.4420    1.6857   -0.8580 C   0  0  0  0  0  0  0  0  0  0  0  0
    1.6378    0.5878    0.5317 N   0  0  0  0  0  0  0  0  0  0  0  0
    3.0581    2.7126    1.1997 H   0  0  0  0  0  0  0  0  0  0  0  0
    4.5671   -0.5020   -0.1355 H   0  0  0  0  0  0  0  0  0  0  0  0
    2.7539   -2.1611   -0.5947 H   0  0  0  0  0  0  0  0  0  0  0  0
   -0.7691    0.2161    1.1473 H   0  0  0  0  0  0  0  0  0  0  0  0
   -2.7818   -1.0755    1.3424 H   0  0  0  0  0  0  0  0  0  0  0  0
   -1.3520   -2.0398    1.7563 H   0  0  0  0  0  0  0  0  0  0  0  0
   -1.5346   -2.4942   -0.7394 H   0  0  0  0  0  0  0  0  0  0  0  0
   -1.2199   -0.3288   -1.8320 H   0  0  0  0  0  0  0  0  0  0  0  0
   -3.3334    0.9749    0.1191 H   0  0  0  0  0  0  0  0  0  0  0  0
   -3.3589    1.0022   -1.7710 H   0  0  0  0  0  0  0  0  0  0  0  0
   -1.1339    2.1865    0.0672 H   0  0  0  0  0  0  0  0  0  0  0  0
   -1.1470    2.1995   -1.8128 H   0  0  0  0  0  0  0  0  0  0  0  0
    0.9438    1.2796    0.8518 H   0  0  0  0  0  0  0  0  0  0  0  0
  1  2  2  3
  2  3  1  0
  3  4  1  0
  4  5  1  0
  5  6  2  3
  6  7  1  0
  7  8  1  0
  8  9  1  0
  7 10  1  0
 10 11  1  0
 11 12  1  0
  5 13  1  0
 13  2  1  0
 12 10  1  0
  1 14  1  0
  3 15  1  0
  4 16  1  0
  7 17  1  1
  8 18  1  0
  8 19  1  0
  9 20  1  0
 10 21  1  0
 11 22  1  0
 11 23  1  0
 12 24  1  0
 12 25  1  0
 13 26  1  0
M  END
$$$$

     RDKit          3D

 26 27  0  0  0  0  0  0  0  0999 V2000
    3.8554   -1.0649    0.8394 N   0  0  0  0  0  0  0  0  0  0  0  0
    3.0099   -0.6028    0.0007 C   0  0  0  0  0  0  0  0  0  0  0  0
    3.1691   -0.3882   -1.3041 N   0  0  0  0  0  0  0  0  0  0  0  0
    2.0731    0.0936   -1.8229 N   0  0  0  0  0  0  0  0  0  0  0  0
    1.1232    0.2150   -0.8356 C   0  0  0  0  0  0  0  0  0  0  0  0
   -0.0055    0.6447   -1.0465 N   0  0  0  0  0  0  0  0  0  0  0  0
   -1.2031    0.9193   -0.3901 C   0  0  2  0  0  0  0  0  0  0  0  0
   -1.1111    1.3917    1.0349 C   0  0  0  0  0  0  0  0  0  0  0  0
   -0.3694    2.5501    1.1139 O   0  0  0  0  0  0  0  0  0  0  0  0
   -2.1028   -0.3129   -0.5003 C   0  0  0  0  0  0  0  0  0  0  0  0
   -1.6498   -1.6225    0.0680 C   0  0  0  0  0  0  0  0  0  0  0  0
   -2.7559   -0.8526    0.6933 C   0  0  0  0  0  0  0  0  0  0  0  0
    1.7243   -0.2186    0.2702 N   0  0  0  0  0  0  0  0  0  0  0  0
    3.5921   -1.1801    1.8351 H   0  0  0  0  0  0  0  0  0  0  0  0
    4.0646   -0.5870   -1.8256 H   0  0  0  0  0  0  0  0  0  0  0  0
    1.9485    0.3447   -2.8338 H   0  0  0  0  0  0  0  0  0  0  0  0
   -1.7611    1.7562   -0.9387 H   0  0  0  0  0  0  0  0  0  0  0  0
   -0.7170    0.6424    1.7371 H   0  0  0  0  0  0  0  0  0  0  0  0
   -2.1283    1.6620    1.4336 H   0  0  0  0  0  0  0  0  0  0  0  0
   -0.5963    3.2007    0.4247 H   0  0  0  0  0  0  0  0  0  0  0  0
   -2.6283   -0.4138   -1.4912 H   0  0  0  0  0  0  0  0  0  0  0  0
   -1.8978   -2.5698   -0.4789 H   0  0  0  0  0  0  0  0  0  0  0  0
   -0.6454   -1.6490    0.5079 H   0  0  0  0  0  0  0  0  0  0  0  0
   -2.5425   -0.4280    1.6890 H   0  0  0  0  0  0  0  0  0  0  0  0
   -3.7828   -1.2417    0.5800 H   0  0  0  0  0  0  0  0  0  0  0  0
    1.3372   -0.2882    1.2398 H   0  0  0  0  0  0  0  0  0  0  0  0
  1  2  2  3
  2  3  1  0
  3  4  1  0
  4  5  1  0
  5  6  2  3
  6  7  1  0
  7  8  1  0
  8  9  1  0
  7 10  1  0
 10 11  1  0
 11 12  1  0
  5 13  1  0
 13  2  1  0
 12 10  1  0
  1 14  1  0
  3 15  1  0
  4 16  1  0
  7 17  1  6
  8 18  1  0
  8 19  1  0
  9 20  1  0
 10 21  1  0
 11 22  1  0
 11 23  1  0
 12 24  1  0
 12 25  1  0
 13 26  1  0
M  END
$$$$

     RDKit          3D

 26 27  0  0  0  0  0  0  0  0999 V2000
    4.8547   -0.3718   -1.2581 N   0  0  0  0  0  0  0  0  0  0  0  0
    3.6381   -0.1563   -0.8730 C   0  0  0  0  0  0  0  0  0  0  0  0
    3.2526    0.7320    0.0728 N   0  0  0  0  0  0  0  0  0  0  0  0
    1.9256    0.6621    0.1865 N   0  0  0  0  0  0  0  0  0  0  0  0
    1.4522   -0.2437   -0.6578 C   0  0  0  0  0  0  0  0  0  0  0  0
    0.2627   -0.6138   -0.8641 N   0  0  0  0  0  0  0  0  0  0  0  0
   -0.8776   -0.0362   -0.1246 C   0  0  2  0  0  0  0  0  0  0  0  0
   -0.8170   -0.7359    1.2331 C   0  0  0  0  0  0  0  0  0  0  0  0
   -1.7919   -0.3405    2.1097 O   0  0  0  0  0  0  0  0  0  0  0  0
   -2.1501   -0.2012   -0.7362 C   0  0  0  0  0  0  0  0  0  0  0  0
   -3.0730    0.4340    0.1390 C   0  0  0  0  0  0  0  0  0  0  0  0
   -3.4210    0.2563   -1.1833 C   0  0  0  0  0  0  0  0  0  0  0  0
    2.5149   -0.7602   -1.3240 N   0  0  0  0  0  0  0  0  0  0  0  0
    5.6297    0.1628   -0.8285 H   0  0  0  0  0  0  0  0  0  0  0  0
    3.9089    1.3586    0.6114 H   0  0  0  0  0  0  0  0  0  0  0  0
    1.3697    1.2375    0.8411 H   0  0  0  0  0  0  0  0  0  0  0  0
   -0.5056    1.0149    0.0738 H   0  0  0  0  0  0  0  0  0  0  0  0
   -0.9398   -1.8414    1.0401 H   0  0  0  0  0  0  0  0  0  0  0  0
    0.1578   -0.6331    1.7204 H   0  0  0  0  0  0  0  0  0  0  0  0
   -1.5323    0.3807    2.7189 H   0  0  0  0  0  0  0  0  0  0  0  0
   -2.0365   -1.0177   -1.4513 H   0  0  0  0  0  0  0  0  0  0  0  0
   -2.8348    1.4600    0.5014 H   0  0  0  0  0  0  0  0  0  0  0  0
   -3.7290   -0.0589    0.9264 H   0  0  0  0  0  0  0  0  0  0  0  0
   -4.3252   -0.3447   -1.4283 H   0  0  0  0  0  0  0  0  0  0  0  0
   -3.4107    1.1589   -1.8750 H   0  0  0  0  0  0  0  0  0  0  0  0
    2.4775   -1.5026   -2.0646 H   0  0  0  0  0  0  0  0  0  0  0  0
  1  2  2  3
  2  3  1  0
  3  4  1  0
  4  5  1  0
  5  6  2  3
  6  7  1  0
  7  8  1  0
  8  9  1  0
  7 10  1  0
 10 11  1  0
 11 12  1  0
  5 13  1  0
 13  2  1  0
 12 10  1  0
  1 14  1  0
  3 15  1  0
  4 16  1  0
  7 17  1  1
  8 18  1  0
  8 19  1  0
  9 20  1  0
 10 21  1  0
 11 22  1  0
 11 23  1  0
 12 24  1  0
 12 25  1  0
 13 26  1  0
M  END
$$$$

     RDKit          3D

 26 27  0  0  0  0  0  0  0  0999 V2000
    4.1009    0.4096   -1.5678 N   0  0  0  0  0  0  0  0  0  0  0  0
    3.1280   -0.1372   -0.9201 C   0  0  0  0  0  0  0  0  0  0  0  0
    3.2202   -1.3074   -0.2574 N   0  0  0  0  0  0  0  0  0  0  0  0
    2.0278   -1.5737    0.2971 N   0  0  0  0  0  0  0  0  0  0  0  0
    1.1704   -0.5849   -0.0036 C   0  0  0  0  0  0  0  0  0  0  0  0
   -0.0791   -0.5373    0.3840 N   0  0  0  0  0  0  0  0  0  0  0  0
   -0.9601    0.5324    0.0432 C   0  0  2  0  0  0  0  0  0  0  0  0
   -0.8907    1.6165    1.1195 C   0  0  0  0  0  0  0  0  0  0  0  0
    0.3810    2.1271    1.2447 O   0  0  0  0  0  0  0  0  0  0  0  0
   -2.3975    0.1252   -0.0719 C   0  0  0  0  0  0  0  0  0  0  0  0
   -2.6450   -0.9419   -1.1381 C   0  0  0  0  0  0  0  0  0  0  0  0
   -2.8720   -1.2166    0.3089 C   0  0  0  0  0  0  0  0  0  0  0  0
    1.8608    0.2813   -0.7465 N   0  0  0  0  0  0  0  0  0  0  0  0
    4.0002    1.3112   -2.0685 H   0  0  0  0  0  0  0  0  0  0  0  0
    4.0796   -1.8889   -0.1987 H   0  0  0  0  0  0  0  0  0  0  0  0
    1.8485   -2.4150    0.8553 H   0  0  0  0  0  0  0  0  0  0  0  0
   -0.5694    1.0049   -0.8938 H   0  0  0  0  0  0  0  0  0  0  0  0
   -1.3157    1.2137    2.0425 H   0  0  0  0  0  0  0  0  0  0  0  0
   -1.5516    2.4757    0.8077 H   0  0  0  0  0  0  0  0  0  0  0  0
    0.5423    2.8805    0.6424 H   0  0  0  0  0  0  0  0  0  0  0  0
   -3.1266    0.9657   -0.0123 H   0  0  0  0  0  0  0  0  0  0  0  0
   -1.7883   -1.4458   -1.5950 H   0  0  0  0  0  0  0  0  0  0  0  0
   -3.5029   -0.7961   -1.8248 H   0  0  0  0  0  0  0  0  0  0  0  0
   -2.2225   -1.9629    0.8061 H   0  0  0  0  0  0  0  0  0  0  0  0
   -3.9372   -1.3037    0.6076 H   0  0  0  0  0  0  0  0  0  0  0  0
    1.4990    1.1674   -1.1512 H   0  0  0  0  0  0  0  0  0  0  0  0
  1  2  2  3
  2  3  1  0
  3  4  1  0
  4  5  1  0
  5  6  2  3
  6  7  1  0
  7  8  1  0
  8  9  1  0
  7 10  1  0
 10 11  1  0
 11 12  1  0
  5 13  1  0
 13  2  1  0
 12 10  1  0
  1 14  1  0
  3 15  1  0
  4 16  1  0
  7 17  1  6
  8 18  1  0
  8 19  1  0
  9 20  1  0
 10 21  1  0
 11 22  1  0
 11 23  1  0
 12 24  1  0
 12 25  1  0
 13 26  1  0
M  END
$$$$

     RDKit          3D

 26 27  0  0  0  0  0  0  0  0999 V2000
    4.8001    0.5293   -0.1254 N   0  0  0  0  0  0  0  0  0  0  0  0
    3.5206    0.3233   -0.1619 C   0  0  0  0  0  0  0  0  0  0  0  0
    2.9776   -0.8408   -0.5436 N   0  0  0  0  0  0  0  0  0  0  0  0
    1.6473   -0.6715   -0.4512 N   0  0  0  0  0  0  0  0  0  0  0  0
    1.3442    0.5559   -0.0258 C   0  0  0  0  0  0  0  0  0  0  0  0
    0.2127    1.0773    0.1814 N   0  0  0  0  0  0  0  0  0  0  0  0
   -1.1087    0.6135    0.0587 C   0  0  2  0  0  0  0  0  0  0  0  0
   -2.0945    1.5134    0.8107 C   0  0  0  0  0  0  0  0  0  0  0  0
   -2.0342    2.8051    0.2951 O   0  0  0  0  0  0  0  0  0  0  0  0
   -1.3213   -0.8225    0.3875 C   0  0  0  0  0  0  0  0  0  0  0  0
   -2.6657   -1.4474    0.3254 C   0  0  0  0  0  0  0  0  0  0  0  0
   -1.7878   -1.6890   -0.8196 C   0  0  0  0  0  0  0  0  0  0  0  0
    2.5553    1.1931    0.1592 N   0  0  0  0  0  0  0  0  0  0  0  0
    5.4824   -0.2057   -0.3932 H   0  0  0  0  0  0  0  0  0  0  0  0
    3.4787   -1.7105   -0.8526 H   0  0  0  0  0  0  0  0  0  0  0  0
    1.0069   -1.4507   -0.6996 H   0  0  0  0  0  0  0  0  0  0  0  0
   -1.4121    0.7611   -1.0290 H   0  0  0  0  0  0  0  0  0  0  0  0
   -3.1132    1.1321    0.7552 H   0  0  0  0  0  0  0  0  0  0  0  0
   -1.7627    1.5430    1.8685 H   0  0  0  0  0  0  0  0  0  0  0  0
   -2.1405    2.7771   -0.6857 H   0  0  0  0  0  0  0  0  0  0  0  0
   -0.5882   -1.2655    1.0745 H   0  0  0  0  0  0  0  0  0  0  0  0
   -3.5768   -0.8314    0.1844 H   0  0  0  0  0  0  0  0  0  0  0  0
   -2.8392   -2.3024    1.0102 H   0  0  0  0  0  0  0  0  0  0  0  0
   -2.0240   -1.1499   -1.7522 H   0  0  0  0  0  0  0  0  0  0  0  0
   -1.1966   -2.5960   -0.9668 H   0  0  0  0  0  0  0  0  0  0  0  0
    2.6397    2.1592    0.4855 H   0  0  0  0  0  0  0  0  0  0  0  0
  1  2  2  3
  2  3  1  0
  3  4  1  0
  4  5  1  0
  5  6  2  3
  6  7  1  0
  7  8  1  0
  8  9  1  0
  7 10  1  0
 10 11  1  0
 11 12  1  0
  5 13  1  0
 13  2  1  0
 12 10  1  0
  1 14  1  0
  3 15  1  0
  4 16  1  0
  7 17  1  6
  8 18  1  0
  8 19  1  0
  9 20  1  0
 10 21  1  0
 11 22  1  0
 11 23  1  0
 12 24  1  0
 12 25  1  0
 13 26  1  0
M  END
$$$$

     RDKit          3D

 26 27  0  0  0  0  0  0  0  0999 V2000
    4.4750    0.7019    0.5029 N   0  0  0  0  0  0  0  0  0  0  0  0
    3.4317   -0.0369    0.3116 C   0  0  0  0  0  0  0  0  0  0  0  0
    3.4092   -1.3561    0.0638 N   0  0  0  0  0  0  0  0  0  0  0  0
    2.1714   -1.7628   -0.0753 N   0  0  0  0  0  0  0  0  0  0  0  0
    1.3735   -0.6931    0.0841 C   0  0  0  0  0  0  0  0  0  0  0  0
    0.0850   -0.7704    0.0041 N   0  0  0  0  0  0  0  0  0  0  0  0
   -0.7700    0.3942    0.1783 C   0  0  2  0  0  0  0  0  0  0  0  0
   -0.9703    0.7429    1.6130 C   0  0  0  0  0  0  0  0  0  0  0  0
   -1.7703    1.8702    1.7661 O   0  0  0  0  0  0  0  0  0  0  0  0
   -1.9999    0.2307   -0.6370 C   0  0  0  0  0  0  0  0  0  0  0  0
   -2.9341   -0.9069   -0.4395 C   0  0  0  0  0  0  0  0  0  0  0  0
   -3.3109    0.5120   -0.0535 C   0  0  0  0  0  0  0  0  0  0  0  0
    2.1572    0.3737    0.3235 N   0  0  0  0  0  0  0  0  0  0  0  0
    5.4257    0.2501    0.4668 H   0  0  0  0  0  0  0  0  0  0  0  0
    4.2351   -1.9948   -0.0136 H   0  0  0  0  0  0  0  0  0  0  0  0
    1.8522   -2.7491   -0.2760 H   0  0  0  0  0  0  0  0  0  0  0  0
   -0.1714    1.2449   -0.2664 H   0  0  0  0  0  0  0  0  0  0  0  0
   -1.3606   -0.1260    2.1839 H   0  0  0  0  0  0  0  0  0  0  0  0
    0.0265    1.0149    2.0402 H   0  0  0  0  0  0  0  0  0  0  0  0
   -1.5612    2.5130    1.0459 H   0  0  0  0  0  0  0  0  0  0  0  0
   -1.8525    0.4912   -1.7278 H   0  0  0  0  0  0  0  0  0  0  0  0
   -2.6823   -1.6336    0.3398 H   0  0  0  0  0  0  0  0  0  0  0  0
   -3.5019   -1.3052   -1.2898 H   0  0  0  0  0  0  0  0  0  0  0  0
   -3.5194    0.6105    1.0078 H   0  0  0  0  0  0  0  0  0  0  0  0
   -4.0658    1.0393   -0.6858 H   0  0  0  0  0  0  0  0  0  0  0  0
    1.8279    1.3453    0.4884 H   0  0  0  0  0  0  0  0  0  0  0  0
  1  2  2  3
  2  3  1  0
  3  4  1  0
  4  5  1  0
  5  6  2  3
  6  7  1  0
  7  8  1  0
  8  9  1  0
  7 10  1  0
 10 11  1  0
 11 12  1  0
  5 13  1  0
 13  2  1  0
 12 10  1  0
  1 14  1  0
  3 15  1  0
  4 16  1  0
  7 17  1  6
  8 18  1  0
  8 19  1  0
  9 20  1  0
 10 21  1  0
 11 22  1  0
 11 23  1  0
 12 24  1  0
 12 25  1  0
 13 26  1  0
M  END
$$$$
