
     RDKit          3D

 29 30  0  0  0  0  0  0  0  0999 V2000
    2.9622    2.0508   -0.1726 C   0  0  0  0  0  0  0  0  0  0  0  0
    2.2090    0.7817   -0.0024 C   0  0  0  0  0  0  0  0  0  0  0  0
    0.9021    0.6132   -0.1788 N   0  0  0  0  0  0  0  0  0  0  0  0
    0.6027   -0.6650    0.0682 C   0  0  0  0  0  0  0  0  0  0  0  0
   -0.5633   -1.1744   -0.0059 N   0  0  0  0  0  0  0  0  0  0  0  0
   -1.7413   -0.4516   -0.3677 C   0  0  1  0  0  0  0  0  0  0  0  0
   -2.7151   -1.3687   -1.0745 C   0  0  0  0  0  0  0  0  0  0  0  0
   -3.8817   -1.3774   -0.3455 O   0  0  0  0  0  0  0  0  0  0  0  0
   -3.9443   -0.2295    0.4068 C   0  0  0  0  0  0  0  0  0  0  0  0
   -2.5144    0.0956    0.7887 C   0  0  2  0  0  0  0  0  0  0  0  0
   -2.3426    1.5342    0.9093 N   0  0  0  0  0  0  0  0  0  0  0  0
    1.7296   -1.3047    0.4022 N   0  0  0  0  0  0  0  0  0  0  0  0
    2.7000   -0.4120    0.3552 N   0  0  0  0  0  0  0  0  0  0  0  0
    4.0797   -0.7232    0.6548 C   0  0  0  0  0  0  0  0  0  0  0  0
    3.2984    2.1916   -1.2297 H   0  0  0  0  0  0  0  0  0  0  0  0
    3.8117    2.0561    0.5354 H   0  0  0  0  0  0  0  0  0  0  0  0
    2.2780    2.9242    0.0215 H   0  0  0  0  0  0  0  0  0  0  0  0
   -1.4549    0.3717   -1.0640 H   0  0  0  0  0  0  0  0  0  0  0  0
   -2.8587   -1.0950   -2.1441 H   0  0  0  0  0  0  0  0  0  0  0  0
   -2.3147   -2.4240   -1.0471 H   0  0  0  0  0  0  0  0  0  0  0  0
   -4.5413   -0.4279    1.3120 H   0  0  0  0  0  0  0  0  0  0  0  0
   -4.3273    0.6282   -0.1840 H   0  0  0  0  0  0  0  0  0  0  0  0
   -2.2669   -0.4269    1.7133 H   0  0  0  0  0  0  0  0  0  0  0  0
   -1.3412    1.7601    1.0425 H   0  0  0  0  0  0  0  0  0  0  0  0
   -2.8779    1.8221    1.7701 H   0  0  0  0  0  0  0  0  0  0  0  0
    1.7590   -2.3250    0.6436 H   0  0  0  0  0  0  0  0  0  0  0  0
    4.5419   -1.2470   -0.2147 H   0  0  0  0  0  0  0  0  0  0  0  0
    4.1704   -1.3855    1.5532 H   0  0  0  0  0  0  0  0  0  0  0  0
    4.6407    0.2084    0.8871 H   0  0  0  0  0  0  0  0  0  0  0  0
  1  2  1  0
  2  3  2  0
  3  4  1  0
  4  5  2  3
  5  6  1  0
  6  7  1  0
  7  8  1  0
  8  9  1  0
  9 10  1  0
 10 11  1  0
  4 12  1  0
 12 13  1  0
 13 14  1  0
 13  2  1  0
 10  6  1  0
  1 15  1  0
  1 16  1  0
  1 17  1  0
  6 18  1  6
  7 19  1  0
  7 20  1  0
  9 21  1  0
  9 22  1  0
 10 23  1  1
 11 24  1  0
 11 25  1  0
 12 26  1  0
 14 27  1  0
 14 28  1  0
 14 29  1  0
M  END
$$$$

     RDKit          3D

 29 30  0  0  0  0  0  0  0  0999 V2000
   -2.7534    1.5224    0.8637 C   0  0  0  0  0  0  0  0  0  0  0  0
   -1.9652    0.4864    0.1611 C   0  0  0  0  0  0  0  0  0  0  0  0
   -0.6280    0.2815    0.1439 N   0  0  0  0  0  0  0  0  0  0  0  0
   -0.3290   -0.7741   -0.6240 C   0  0  0  0  0  0  0  0  0  0  0  0
    0.8175   -1.2371   -0.8561 N   0  0  0  0  0  0  0  0  0  0  0  0
    2.0733   -0.7958   -0.3929 C   0  0  1  0  0  0  0  0  0  0  0  0
    2.4991    0.4071   -1.2462 C   0  0  0  0  0  0  0  0  0  0  0  0
    3.3014    1.1578   -0.3581 O   0  0  0  0  0  0  0  0  0  0  0  0
    2.4866    1.2240    0.7626 C   0  0  0  0  0  0  0  0  0  0  0  0
    2.1154   -0.2272    0.9782 C   0  0  2  0  0  0  0  0  0  0  0  0
    3.2551   -0.8096    1.6989 N   0  0  0  0  0  0  0  0  0  0  0  0
   -1.4950   -1.2324   -1.0909 N   0  0  0  0  0  0  0  0  0  0  0  0
   -2.4875   -0.4743   -0.6196 N   0  0  0  0  0  0  0  0  0  0  0  0
   -3.9006   -0.6501   -0.8982 C   0  0  0  0  0  0  0  0  0  0  0  0
   -3.3215    2.1463    0.1583 H   0  0  0  0  0  0  0  0  0  0  0  0
   -3.5072    0.9891    1.4934 H   0  0  0  0  0  0  0  0  0  0  0  0
   -2.1082    2.1120    1.5546 H   0  0  0  0  0  0  0  0  0  0  0  0
    2.8151   -1.6092   -0.5102 H   0  0  0  0  0  0  0  0  0  0  0  0
    1.6252    1.0370   -1.4919 H   0  0  0  0  0  0  0  0  0  0  0  0
    3.0637    0.0903   -2.1399 H   0  0  0  0  0  0  0  0  0  0  0  0
    3.1354    1.5757    1.6015 H   0  0  0  0  0  0  0  0  0  0  0  0
    1.6171    1.8822    0.6272 H   0  0  0  0  0  0  0  0  0  0  0  0
    1.1797   -0.3442    1.5595 H   0  0  0  0  0  0  0  0  0  0  0  0
    2.9705   -1.6107    2.2920 H   0  0  0  0  0  0  0  0  0  0  0  0
    3.9648   -1.0547    0.9775 H   0  0  0  0  0  0  0  0  0  0  0  0
   -1.6761   -2.0400   -1.7205 H   0  0  0  0  0  0  0  0  0  0  0  0
   -4.0272   -1.1810   -1.8672 H   0  0  0  0  0  0  0  0  0  0  0  0
   -4.3820    0.3369   -1.0098 H   0  0  0  0  0  0  0  0  0  0  0  0
   -4.3390   -1.2083   -0.0470 H   0  0  0  0  0  0  0  0  0  0  0  0
  1  2  1  0
  2  3  2  0
  3  4  1  0
  4  5  2  3
  5  6  1  0
  6  7  1  0
  7  8  1  0
  8  9  1  0
  9 10  1  0
 10 11  1  0
  4 12  1  0
 12 13  1  0
 13 14  1  0
 13  2  1  0
 10  6  1  0
  1 15  1  0
  1 16  1  0
  1 17  1  0
  6 18  1  1
  7 19  1  0
  7 20  1  0
  9 21  1  0
  9 22  1  0
 10 23  1  1
 11 24  1  0
 11 25  1  0
 12 26  1  0
 14 27  1  0
 14 28  1  0
 14 29  1  0
M  END
$$$$

     RDKit          3D

 29 30  0  0  0  0  0  0  0  0999 V2000
    4.0962   -1.5532   -0.4225 C   0  0  0  0  0  0  0  0  0  0  0  0
    2.7210   -0.9824   -0.2094 C   0  0  0  0  0  0  0  0  0  0  0  0
    1.5489   -1.6088   -0.3579 N   0  0  0  0  0  0  0  0  0  0  0  0
    0.5504   -0.7538   -0.0724 C   0  0  0  0  0  0  0  0  0  0  0  0
   -0.7172   -1.0096   -0.1080 N   0  0  0  0  0  0  0  0  0  0  0  0
   -1.6674    0.0289    0.2304 C   0  0  1  0  0  0  0  0  0  0  0  0
   -2.0713    0.7839   -1.0076 C   0  0  0  0  0  0  0  0  0  0  0  0
   -3.1549    0.0332   -1.4709 O   0  0  0  0  0  0  0  0  0  0  0  0
   -3.9623    0.0074   -0.3093 C   0  0  0  0  0  0  0  0  0  0  0  0
   -2.9867   -0.5554    0.6967 C   0  0  2  0  0  0  0  0  0  0  0  0
   -3.3074    0.0090    1.9959 N   0  0  0  0  0  0  0  0  0  0  0  0
    1.1587    0.4013    0.2508 N   0  0  0  0  0  0  0  0  0  0  0  0
    2.4698    0.2730    0.1710 N   0  0  0  0  0  0  0  0  0  0  0  0
    3.4101    1.3429    0.4584 C   0  0  0  0  0  0  0  0  0  0  0  0
    4.6354   -0.8098   -1.0458 H   0  0  0  0  0  0  0  0  0  0  0  0
    4.5847   -1.7154    0.5399 H   0  0  0  0  0  0  0  0  0  0  0  0
    3.9658   -2.5184   -0.9596 H   0  0  0  0  0  0  0  0  0  0  0  0
   -1.2273    0.6853    1.0107 H   0  0  0  0  0  0  0  0  0  0  0  0
   -1.2577    0.8427   -1.7584 H   0  0  0  0  0  0  0  0  0  0  0  0
   -2.4509    1.7930   -0.7089 H   0  0  0  0  0  0  0  0  0  0  0  0
   -4.8612   -0.6006   -0.4421 H   0  0  0  0  0  0  0  0  0  0  0  0
   -4.1787    1.0603   -0.0568 H   0  0  0  0  0  0  0  0  0  0  0  0
   -2.9724   -1.6593    0.7195 H   0  0  0  0  0  0  0  0  0  0  0  0
   -2.9409    0.9987    1.9935 H   0  0  0  0  0  0  0  0  0  0  0  0
   -2.9055   -0.5458    2.7832 H   0  0  0  0  0  0  0  0  0  0  0  0
    0.6628    1.2817    0.5278 H   0  0  0  0  0  0  0  0  0  0  0  0
    4.4175    0.9177    0.6031 H   0  0  0  0  0  0  0  0  0  0  0  0
    3.1037    1.7609    1.4549 H   0  0  0  0  0  0  0  0  0  0  0  0
    3.3368    2.0923   -0.3352 H   0  0  0  0  0  0  0  0  0  0  0  0
  1  2  1  0
  2  3  2  0
  3  4  1  0
  4  5  2  3
  5  6  1  0
  6  7  1  0
  7  8  1  0
  8  9  1  0
  9 10  1  0
 10 11  1  0
  4 12  1  0
 12 13  1  0
 13 14  1  0
 13  2  1  0
 10  6  1  0
  1 15  1  0
  1 16  1  0
  1 17  1  0
  6 18  1  1
  7 19  1  0
  7 20  1  0
  9 21  1  0
  9 22  1  0
 10 23  1  1
 11 24  1  0
 11 25  1  0
 12 26  1  0
 14 27  1  0
 14 28  1  0
 14 29  1  0
M  END
$$$$

     RDKit          3D

 29 30  0  0  0  0  0  0  0  0999 V2000
    3.3052    1.5886   -0.8558 C   0  0  0  0  0  0  0  0  0  0  0  0
    2.4416    0.4982   -0.3612 C   0  0  0  0  0  0  0  0  0  0  0  0
    1.0848    0.5813   -0.3775 N   0  0  0  0  0  0  0  0  0  0  0  0
    0.5574   -0.5571    0.1332 C   0  0  0  0  0  0  0  0  0  0  0  0
   -0.6826   -0.8648    0.2878 N   0  0  0  0  0  0  0  0  0  0  0  0
   -1.6733    0.0981   -0.1226 C   0  0  1  0  0  0  0  0  0  0  0  0
   -2.4975   -0.3900   -1.2966 C   0  0  0  0  0  0  0  0  0  0  0  0
   -3.8200   -0.0344   -0.9595 O   0  0  0  0  0  0  0  0  0  0  0  0
   -3.8774   -0.5231    0.3558 C   0  0  0  0  0  0  0  0  0  0  0  0
   -2.7200    0.2121    0.9920 C   0  0  2  0  0  0  0  0  0  0  0  0
   -2.9835    1.6076    1.2003 N   0  0  0  0  0  0  0  0  0  0  0  0
    1.6249   -1.3202    0.4542 N   0  0  0  0  0  0  0  0  0  0  0  0
    2.7319   -0.6910    0.1597 N   0  0  0  0  0  0  0  0  0  0  0  0
    4.0808   -1.1890    0.3594 C   0  0  0  0  0  0  0  0  0  0  0  0
    2.8180    2.5683   -0.6345 H   0  0  0  0  0  0  0  0  0  0  0  0
    3.3585    1.4718   -1.9732 H   0  0  0  0  0  0  0  0  0  0  0  0
    4.2911    1.5827   -0.3921 H   0  0  0  0  0  0  0  0  0  0  0  0
   -1.2350    1.0781   -0.3576 H   0  0  0  0  0  0  0  0  0  0  0  0
   -2.4925   -1.4931   -1.3899 H   0  0  0  0  0  0  0  0  0  0  0  0
   -2.1816    0.1194   -2.2337 H   0  0  0  0  0  0  0  0  0  0  0  0
   -3.5816   -1.5892    0.2933 H   0  0  0  0  0  0  0  0  0  0  0  0
   -4.8355   -0.3518    0.8353 H   0  0  0  0  0  0  0  0  0  0  0  0
   -2.3776   -0.3114    1.9054 H   0  0  0  0  0  0  0  0  0  0  0  0
   -2.2180    2.2162    0.8212 H   0  0  0  0  0  0  0  0  0  0  0  0
   -3.9140    1.9263    0.9091 H   0  0  0  0  0  0  0  0  0  0  0  0
    1.5830   -2.2710    0.8748 H   0  0  0  0  0  0  0  0  0  0  0  0
    4.8342   -0.4356    0.1144 H   0  0  0  0  0  0  0  0  0  0  0  0
    4.1672   -1.3984    1.4623 H   0  0  0  0  0  0  0  0  0  0  0  0
    4.2113   -2.1284   -0.2043 H   0  0  0  0  0  0  0  0  0  0  0  0
  1  2  1  0
  2  3  2  0
  3  4  1  0
  4  5  2  3
  5  6  1  0
  6  7  1  0
  7  8  1  0
  8  9  1  0
  9 10  1  0
 10 11  1  0
  4 12  1  0
 12 13  1  0
 13 14  1  0
 13  2  1  0
 10  6  1  0
  1 15  1  0
  1 16  1  0
  1 17  1  0
  6 18  1  6
  7 19  1  0
  7 20  1  0
  9 21  1  0
  9 22  1  0
 10 23  1  1
 11 24  1  0
 11 25  1  0
 12 26  1  0
 14 27  1  0
 14 28  1  0
 14 29  1  0
M  END
$$$$

     RDKit          3D

 29 30  0  0  0  0  0  0  0  0999 V2000
   -3.0884    1.9436   -0.6471 C   0  0  0  0  0  0  0  0  0  0  0  0
   -2.3508    0.7474   -0.2198 C   0  0  0  0  0  0  0  0  0  0  0  0
   -0.9874    0.6692   -0.2215 N   0  0  0  0  0  0  0  0  0  0  0  0
   -0.6025   -0.5296    0.2148 C   0  0  0  0  0  0  0  0  0  0  0  0
    0.6054   -0.9400    0.3399 N   0  0  0  0  0  0  0  0  0  0  0  0
    1.7085   -0.0996    0.0032 C   0  0  1  0  0  0  0  0  0  0  0  0
    2.0533    0.9032    1.0862 C   0  0  0  0  0  0  0  0  0  0  0  0
    3.3072    1.3340    0.6528 O   0  0  0  0  0  0  0  0  0  0  0  0
    4.0118    0.2204    0.2506 C   0  0  0  0  0  0  0  0  0  0  0  0
    3.0030   -0.8238   -0.1783 C   0  0  2  0  0  0  0  0  0  0  0  0
    3.1409   -1.1832   -1.5612 N   0  0  0  0  0  0  0  0  0  0  0  0
   -1.7199   -1.2134    0.4938 N   0  0  0  0  0  0  0  0  0  0  0  0
   -2.7712   -0.4369    0.2293 N   0  0  0  0  0  0  0  0  0  0  0  0
   -4.1499   -0.8075    0.3980 C   0  0  0  0  0  0  0  0  0  0  0  0
   -2.4488    2.8461   -0.5915 H   0  0  0  0  0  0  0  0  0  0  0  0
   -3.4493    1.8309   -1.6926 H   0  0  0  0  0  0  0  0  0  0  0  0
   -3.9490    2.0683    0.0559 H   0  0  0  0  0  0  0  0  0  0  0  0
    1.5270    0.4966   -0.9242 H   0  0  0  0  0  0  0  0  0  0  0  0
    2.0975    0.3841    2.0666 H   0  0  0  0  0  0  0  0  0  0  0  0
    1.3067    1.6936    1.0628 H   0  0  0  0  0  0  0  0  0  0  0  0
    4.6681    0.4593   -0.6297 H   0  0  0  0  0  0  0  0  0  0  0  0
    4.6385   -0.1172    1.1015 H   0  0  0  0  0  0  0  0  0  0  0  0
    3.0952   -1.7324    0.4604 H   0  0  0  0  0  0  0  0  0  0  0  0
    2.5729   -0.6318   -2.2133 H   0  0  0  0  0  0  0  0  0  0  0  0
    3.1534   -2.2081   -1.7376 H   0  0  0  0  0  0  0  0  0  0  0  0
   -1.8073   -2.1927    0.8593 H   0  0  0  0  0  0  0  0  0  0  0  0
   -4.2963   -1.9193    0.3159 H   0  0  0  0  0  0  0  0  0  0  0  0
   -4.7976   -0.3055   -0.3775 H   0  0  0  0  0  0  0  0  0  0  0  0
   -4.4713   -0.4559    1.4031 H   0  0  0  0  0  0  0  0  0  0  0  0
  1  2  1  0
  2  3  2  0
  3  4  1  0
  4  5  2  3
  5  6  1  0
  6  7  1  0
  7  8  1  0
  8  9  1  0
  9 10  1  0
 10 11  1  0
  4 12  1  0
 12 13  1  0
 13 14  1  0
 13  2  1  0
 10  6  1  0
  1 15  1  0
  1 16  1  0
  1 17  1  0
  6 18  1  6
  7 19  1  0
  7 20  1  0
  9 21  1  0
  9 22  1  0
 10 23  1  1
 11 24  1  0
 11 25  1  0
 12 26  1  0
 14 27  1  0
 14 28  1  0
 14 29  1  0
M  END
$$$$

     RDKit          3D

 29 30  0  0  0  0  0  0  0  0999 V2000
    4.0316   -1.1314    1.3564 C   0  0  0  0  0  0  0  0  0  0  0  0
    2.7190   -0.6844    0.7888 C   0  0  0  0  0  0  0  0  0  0  0  0
    1.5182   -0.9928    1.3271 N   0  0  0  0  0  0  0  0  0  0  0  0
    0.5687   -0.4363    0.5728 C   0  0  0  0  0  0  0  0  0  0  0  0
   -0.7109   -0.5486    0.8275 N   0  0  0  0  0  0  0  0  0  0  0  0
   -1.6139    0.1113   -0.0825 C   0  0  1  0  0  0  0  0  0  0  0  0
   -2.0479   -0.8042   -1.2146 C   0  0  0  0  0  0  0  0  0  0  0  0
   -3.1030   -0.0242   -1.7427 O   0  0  0  0  0  0  0  0  0  0  0  0
   -3.9022    0.1702   -0.5975 C   0  0  0  0  0  0  0  0  0  0  0  0
   -2.9622    0.3870    0.5460 C   0  0  2  0  0  0  0  0  0  0  0  0
   -3.0058    1.7353    1.0693 N   0  0  0  0  0  0  0  0  0  0  0  0
    1.1789    0.2090   -0.4210 N   0  0  0  0  0  0  0  0  0  0  0  0
    2.4858    0.0613   -0.2944 N   0  0  0  0  0  0  0  0  0  0  0  0
    3.5261    0.5937   -1.1517 C   0  0  0  0  0  0  0  0  0  0  0  0
    4.3053   -0.5413    2.2611 H   0  0  0  0  0  0  0  0  0  0  0  0
    3.9459   -2.2141    1.5758 H   0  0  0  0  0  0  0  0  0  0  0  0
    4.8051   -1.0142    0.5458 H   0  0  0  0  0  0  0  0  0  0  0  0
   -1.2232    1.0712   -0.4678 H   0  0  0  0  0  0  0  0  0  0  0  0
   -1.2651   -0.9813   -1.9506 H   0  0  0  0  0  0  0  0  0  0  0  0
   -2.4984   -1.6975   -0.7691 H   0  0  0  0  0  0  0  0  0  0  0  0
   -4.6119    0.9917   -0.7697 H   0  0  0  0  0  0  0  0  0  0  0  0
   -4.4862   -0.7807   -0.4856 H   0  0  0  0  0  0  0  0  0  0  0  0
   -3.1894   -0.3616    1.3442 H   0  0  0  0  0  0  0  0  0  0  0  0
   -2.5717    1.7293    2.0013 H   0  0  0  0  0  0  0  0  0  0  0  0
   -3.9804    2.0855    1.0480 H   0  0  0  0  0  0  0  0  0  0  0  0
    0.6979    0.7471   -1.1809 H   0  0  0  0  0  0  0  0  0  0  0  0
    3.2671    1.6450   -1.4292 H   0  0  0  0  0  0  0  0  0  0  0  0
    3.6287    0.0221   -2.0843 H   0  0  0  0  0  0  0  0  0  0  0  0
    4.4936    0.6527   -0.6226 H   0  0  0  0  0  0  0  0  0  0  0  0
  1  2  1  0
  2  3  2  0
  3  4  1  0
  4  5  2  3
  5  6  1  0
  6  7  1  0
  7  8  1  0
  8  9  1  0
  9 10  1  0
 10 11  1  0
  4 12  1  0
 12 13  1  0
 13 14  1  0
 13  2  1  0
 10  6  1  0
  1 15  1  0
  1 16  1  0
  1 17  1  0
  6 18  1  6
  7 19  1  0
  7 20  1  0
  9 21  1  0
  9 22  1  0
 10 23  1  1
 11 24  1  0
 11 25  1  0
 12 26  1  0
 14 27  1  0
 14 28  1  0
 14 29  1  0
M  END
$$$$

     RDKit          3D

 29 30  0  0  0  0  0  0  0  0999 V2000
   -3.2570    0.6917    1.5339 C   0  0  0  0  0  0  0  0  0  0  0  0
   -2.3763    0.2047    0.4441 C   0  0  0  0  0  0  0  0  0  0  0  0
   -1.0544    0.1457    0.4997 N   0  0  0  0  0  0  0  0  0  0  0  0
   -0.5463   -0.3420   -0.6494 C   0  0  0  0  0  0  0  0  0  0  0  0
    0.6953   -0.5349   -0.9432 N   0  0  0  0  0  0  0  0  0  0  0  0
    1.6902   -0.2105    0.0271 C   0  0  1  0  0  0  0  0  0  0  0  0
    2.3066   -1.4228    0.6873 C   0  0  0  0  0  0  0  0  0  0  0  0
    3.5998   -1.5313    0.1348 O   0  0  0  0  0  0  0  0  0  0  0  0
    4.0238   -0.2031    0.2135 C   0  0  0  0  0  0  0  0  0  0  0  0
    2.8875    0.5015   -0.5378 C   0  0  2  0  0  0  0  0  0  0  0  0
    2.8810    1.9189   -0.2266 N   0  0  0  0  0  0  0  0  0  0  0  0
   -1.6322   -0.5852   -1.4290 N   0  0  0  0  0  0  0  0  0  0  0  0
   -2.7270   -0.2541   -0.7649 N   0  0  0  0  0  0  0  0  0  0  0  0
   -4.1061   -0.3485   -1.2153 C   0  0  0  0  0  0  0  0  0  0  0  0
   -4.1954    1.0411    1.0734 H   0  0  0  0  0  0  0  0  0  0  0  0
   -3.3933   -0.1419    2.2500 H   0  0  0  0  0  0  0  0  0  0  0  0
   -2.7348    1.5073    2.0793 H   0  0  0  0  0  0  0  0  0  0  0  0
    1.2848    0.4385    0.8449 H   0  0  0  0  0  0  0  0  0  0  0  0
    1.6973   -2.3177    0.4695 H   0  0  0  0  0  0  0  0  0  0  0  0
    2.4397   -1.2651    1.7745 H   0  0  0  0  0  0  0  0  0  0  0  0
    4.9947   -0.0301   -0.2440 H   0  0  0  0  0  0  0  0  0  0  0  0
    3.9599    0.0937    1.2765 H   0  0  0  0  0  0  0  0  0  0  0  0
    2.9532    0.3534   -1.6179 H   0  0  0  0  0  0  0  0  0  0  0  0
    3.6026    2.0892    0.5279 H   0  0  0  0  0  0  0  0  0  0  0  0
    1.9317    2.2064    0.1304 H   0  0  0  0  0  0  0  0  0  0  0  0
   -1.5707   -0.9730   -2.3958 H   0  0  0  0  0  0  0  0  0  0  0  0
   -4.2298   -1.1789   -1.9469 H   0  0  0  0  0  0  0  0  0  0  0  0
   -4.7678   -0.4914   -0.3396 H   0  0  0  0  0  0  0  0  0  0  0  0
   -4.3567    0.6386   -1.6562 H   0  0  0  0  0  0  0  0  0  0  0  0
  1  2  1  0
  2  3  2  0
  3  4  1  0
  4  5  2  3
  5  6  1  0
  6  7  1  0
  7  8  1  0
  8  9  1  0
  9 10  1  0
 10 11  1  0
  4 12  1  0
 12 13  1  0
 13 14  1  0
 13  2  1  0
 10  6  1  0
  1 15  1  0
  1 16  1  0
  1 17  1  0
  6 18  1  1
  7 19  1  0
  7 20  1  0
  9 21  1  0
  9 22  1  0
 10 23  1  6
 11 24  1  0
 11 25  1  0
 12 26  1  0
 14 27  1  0
 14 28  1  0
 14 29  1  0
M  END
$$$$

     RDKit          3D

 29 30  0  0  0  0  0  0  0  0999 V2000
   -3.9625   -1.3630   -0.7302 C   0  0  0  0  0  0  0  0  0  0  0  0
   -2.6585   -0.7842   -0.2799 C   0  0  0  0  0  0  0  0  0  0  0  0
   -1.5615   -1.5379   -0.0920 N   0  0  0  0  0  0  0  0  0  0  0  0
   -0.5655   -0.7497    0.3052 C   0  0  0  0  0  0  0  0  0  0  0  0
    0.6154   -1.1323    0.5735 N   0  0  0  0  0  0  0  0  0  0  0  0
    1.7065   -0.3199    1.0008 C   0  0  1  0  0  0  0  0  0  0  0  0
    2.9229   -1.2291    1.1891 C   0  0  0  0  0  0  0  0  0  0  0  0
    3.9061   -0.7234    0.3389 O   0  0  0  0  0  0  0  0  0  0  0  0
    3.2290   -0.2505   -0.7864 C   0  0  0  0  0  0  0  0  0  0  0  0
    2.1165    0.5672   -0.1485 C   0  0  2  0  0  0  0  0  0  0  0  0
    2.6656    1.8265    0.2735 N   0  0  0  0  0  0  0  0  0  0  0  0
   -1.0392    0.4915    0.3650 N   0  0  0  0  0  0  0  0  0  0  0  0
   -2.3299    0.4718    0.0044 N   0  0  0  0  0  0  0  0  0  0  0  0
   -3.2286    1.6069   -0.0698 C   0  0  0  0  0  0  0  0  0  0  0  0
   -3.7768   -1.9062   -1.6973 H   0  0  0  0  0  0  0  0  0  0  0  0
   -4.6491   -0.5260   -0.9190 H   0  0  0  0  0  0  0  0  0  0  0  0
   -4.3969   -2.0309    0.0310 H   0  0  0  0  0  0  0  0  0  0  0  0
    1.5219    0.2497    1.9324 H   0  0  0  0  0  0  0  0  0  0  0  0
    2.6817   -2.2846    0.9122 H   0  0  0  0  0  0  0  0  0  0  0  0
    3.2713   -1.2319    2.2415 H   0  0  0  0  0  0  0  0  0  0  0  0
    3.8743    0.4417   -1.3277 H   0  0  0  0  0  0  0  0  0  0  0  0
    2.8025   -1.0592   -1.3826 H   0  0  0  0  0  0  0  0  0  0  0  0
    1.2644    0.7082   -0.8247 H   0  0  0  0  0  0  0  0  0  0  0  0
    3.3255    2.1401   -0.4814 H   0  0  0  0  0  0  0  0  0  0  0  0
    3.2787    1.6484    1.1115 H   0  0  0  0  0  0  0  0  0  0  0  0
   -0.5156    1.3683    0.6451 H   0  0  0  0  0  0  0  0  0  0  0  0
   -3.5554    1.7365   -1.1314 H   0  0  0  0  0  0  0  0  0  0  0  0
   -2.7925    2.5281    0.3389 H   0  0  0  0  0  0  0  0  0  0  0  0
   -4.1501    1.3437    0.5157 H   0  0  0  0  0  0  0  0  0  0  0  0
  1  2  1  0
  2  3  2  0
  3  4  1  0
  4  5  2  3
  5  6  1  0
  6  7  1  0
  7  8  1  0
  8  9  1  0
  9 10  1  0
 10 11  1  0
  4 12  1  0
 12 13  1  0
 13 14  1  0
 13  2  1  0
 10  6  1  0
  1 15  1  0
  1 16  1  0
  1 17  1  0
  6 18  1  1
  7 19  1  0
  7 20  1  0
  9 21  1  0
  9 22  1  0
 10 23  1  6
 11 24  1  0
 11 25  1  0
 12 26  1  0
 14 27  1  0
 14 28  1  0
 14 29  1  0
M  END
$$$$
