
     RDKit          3D

 27 27  0  0  0  0  0  0  0  0999 V2000
   -3.1474    1.3765    0.3699 O   0  0  0  0  0  0  0  0  0  0  0  0
   -2.7633    0.5969    1.4580 C   0  0  0  0  0  0  0  0  0  0  0  0
   -1.6273   -0.3343    1.0227 C   0  0  0  0  0  0  0  0  0  0  0  0
   -2.0930   -1.2947   -0.0169 C   0  0  0  0  0  0  0  0  0  0  0  0
   -2.4750   -0.6105   -1.1563 O   0  0  0  0  0  0  0  0  0  0  0  0
   -0.5203    0.4476    0.5699 N   0  0  0  0  0  0  0  0  0  0  0  0
    0.5758   -0.3569    0.1191 C   0  0  0  0  0  0  0  0  0  0  0  0
    1.7596    0.5129   -0.2613 C   0  0  2  0  0  0  0  0  0  0  0  0
    2.9120   -0.3443   -0.7389 C   0  0  0  0  0  0  0  0  0  0  0  0
    3.7405    0.6933   -0.0019 C   0  0  0  0  0  0  0  0  0  0  0  0
    2.6096    0.8485    0.8981 N   0  0  0  0  0  0  0  0  0  0  0  0
   -3.2841    2.3016    0.7022 H   0  0  0  0  0  0  0  0  0  0  0  0
   -3.6092   -0.0190    1.8133 H   0  0  0  0  0  0  0  0  0  0  0  0
   -2.4061    1.2521    2.2775 H   0  0  0  0  0  0  0  0  0  0  0  0
   -1.2921   -0.9083    1.9270 H   0  0  0  0  0  0  0  0  0  0  0  0
   -1.2912   -2.0248   -0.2399 H   0  0  0  0  0  0  0  0  0  0  0  0
   -2.9941   -1.8356    0.4102 H   0  0  0  0  0  0  0  0  0  0  0  0
   -3.1737   -1.0757   -1.6842 H   0  0  0  0  0  0  0  0  0  0  0  0
   -0.8055    1.1702   -0.1318 H   0  0  0  0  0  0  0  0  0  0  0  0
    0.2559   -0.9172   -0.8084 H   0  0  0  0  0  0  0  0  0  0  0  0
    0.9034   -1.0841    0.8587 H   0  0  0  0  0  0  0  0  0  0  0  0
    1.5503    1.4258   -0.8192 H   0  0  0  0  0  0  0  0  0  0  0  0
    2.9447   -1.2999   -0.2186 H   0  0  0  0  0  0  0  0  0  0  0  0
    3.0605   -0.3958   -1.8306 H   0  0  0  0  0  0  0  0  0  0  0  0
    3.9319    1.6300   -0.5689 H   0  0  0  0  0  0  0  0  0  0  0  0
    4.6525    0.2338    0.4760 H   0  0  0  0  0  0  0  0  0  0  0  0
    2.5854    0.0120    1.5388 H   0  0  0  0  0  0  0  0  0  0  0  0
  1  2  1  0
  2  3  1  0
  3  4  1  0
  4  5  1  0
  3  6  1  0
  6  7  1  0
  7  8  1  0
  8  9  1  0
  9 10  1  0
 10 11  1  0
 11  8  1  0
  1 12  1  0
  2 13  1  0
  2 14  1  0
  3 15  1  0
  4 16  1  0
  4 17  1  0
  5 18  1  0
  6 19  1  0
  7 20  1  0
  7 21  1  0
  8 22  1  6
  9 23  1  0
  9 24  1  0
 10 25  1  0
 10 26  1  0
 11 27  1  0
M  END
$$$$

     RDKit          3D

 27 27  0  0  0  0  0  0  0  0999 V2000
    2.0949   -1.7295   -1.3606 O   0  0  0  0  0  0  0  0  0  0  0  0
    2.5890   -0.6124   -0.7002 C   0  0  0  0  0  0  0  0  0  0  0  0
    1.7371   -0.0729    0.3852 C   0  0  0  0  0  0  0  0  0  0  0  0
    2.4792    1.0600    1.0742 C   0  0  0  0  0  0  0  0  0  0  0  0
    2.5289    2.1464    0.2084 O   0  0  0  0  0  0  0  0  0  0  0  0
    0.4379    0.3807    0.0638 N   0  0  0  0  0  0  0  0  0  0  0  0
   -0.5068   -0.5731   -0.3883 C   0  0  0  0  0  0  0  0  0  0  0  0
   -1.8291    0.0150   -0.7601 C   0  0  2  0  0  0  0  0  0  0  0  0
   -2.6182    0.7508    0.2474 C   0  0  0  0  0  0  0  0  0  0  0  0
   -3.6926   -0.3183    0.2504 C   0  0  0  0  0  0  0  0  0  0  0  0
   -2.9026   -0.9988   -0.7802 N   0  0  0  0  0  0  0  0  0  0  0  0
    2.8195   -2.1294   -1.9273 H   0  0  0  0  0  0  0  0  0  0  0  0
    3.5494   -0.9537   -0.2066 H   0  0  0  0  0  0  0  0  0  0  0  0
    2.9226    0.1791   -1.4089 H   0  0  0  0  0  0  0  0  0  0  0  0
    1.6498   -0.8794    1.1733 H   0  0  0  0  0  0  0  0  0  0  0  0
    3.5184    0.7471    1.3147 H   0  0  0  0  0  0  0  0  0  0  0  0
    1.9075    1.3369    1.9830 H   0  0  0  0  0  0  0  0  0  0  0  0
    2.2726    2.9746    0.7319 H   0  0  0  0  0  0  0  0  0  0  0  0
    0.0366    0.8002    0.9556 H   0  0  0  0  0  0  0  0  0  0  0  0
   -0.1366   -1.1273   -1.2680 H   0  0  0  0  0  0  0  0  0  0  0  0
   -0.7206   -1.3488    0.4052 H   0  0  0  0  0  0  0  0  0  0  0  0
   -1.8521    0.5357   -1.7497 H   0  0  0  0  0  0  0  0  0  0  0  0
   -2.2187    0.8839    1.2646 H   0  0  0  0  0  0  0  0  0  0  0  0
   -3.0222    1.7493   -0.1042 H   0  0  0  0  0  0  0  0  0  0  0  0
   -4.6788    0.0438   -0.1097 H   0  0  0  0  0  0  0  0  0  0  0  0
   -3.7901   -0.9137    1.1757 H   0  0  0  0  0  0  0  0  0  0  0  0
   -2.5747   -1.9462   -0.4698 H   0  0  0  0  0  0  0  0  0  0  0  0
  1  2  1  0
  2  3  1  0
  3  4  1  0
  4  5  1  0
  3  6  1  0
  6  7  1  0
  7  8  1  0
  8  9  1  0
  9 10  1  0
 10 11  1  0
 11  8  1  0
  1 12  1  0
  2 13  1  0
  2 14  1  0
  3 15  1  0
  4 16  1  0
  4 17  1  0
  5 18  1  0
  6 19  1  0
  7 20  1  0
  7 21  1  0
  8 22  1  6
  9 23  1  0
  9 24  1  0
 10 25  1  0
 10 26  1  0
 11 27  1  0
M  END
$$$$

     RDKit          3D

 27 27  0  0  0  0  0  0  0  0999 V2000
   -3.6985    1.0432   -0.6048 O   0  0  0  0  0  0  0  0  0  0  0  0
   -2.4124    0.6373   -1.0107 C   0  0  0  0  0  0  0  0  0  0  0  0
   -1.5847    0.5151    0.2263 C   0  0  0  0  0  0  0  0  0  0  0  0
   -2.3618   -0.5132    1.0897 C   0  0  0  0  0  0  0  0  0  0  0  0
   -1.8293   -0.6540    2.3387 O   0  0  0  0  0  0  0  0  0  0  0  0
   -0.2407    0.1147    0.0923 N   0  0  0  0  0  0  0  0  0  0  0  0
    0.6280    0.9171   -0.6658 C   0  0  0  0  0  0  0  0  0  0  0  0
    2.0755    0.4946   -0.5920 C   0  0  2  0  0  0  0  0  0  0  0  0
    2.4265   -0.8855   -1.0259 C   0  0  0  0  0  0  0  0  0  0  0  0
    3.3155   -0.8492    0.2389 C   0  0  0  0  0  0  0  0  0  0  0  0
    2.4961    0.2301    0.7791 N   0  0  0  0  0  0  0  0  0  0  0  0
   -4.3139    0.2761   -0.6280 H   0  0  0  0  0  0  0  0  0  0  0  0
   -2.5388   -0.3406   -1.5176 H   0  0  0  0  0  0  0  0  0  0  0  0
   -2.0355    1.3463   -1.7693 H   0  0  0  0  0  0  0  0  0  0  0  0
   -1.6318    1.4659    0.8201 H   0  0  0  0  0  0  0  0  0  0  0  0
   -2.3963   -1.4979    0.5738 H   0  0  0  0  0  0  0  0  0  0  0  0
   -3.4382   -0.1815    1.1681 H   0  0  0  0  0  0  0  0  0  0  0  0
   -1.5761   -1.6090    2.4979 H   0  0  0  0  0  0  0  0  0  0  0  0
    0.1326   -0.6239    0.6779 H   0  0  0  0  0  0  0  0  0  0  0  0
    0.3384    0.8323   -1.7461 H   0  0  0  0  0  0  0  0  0  0  0  0
    0.5853    1.9609   -0.2939 H   0  0  0  0  0  0  0  0  0  0  0  0
    2.7209    1.2628   -1.0813 H   0  0  0  0  0  0  0  0  0  0  0  0
    1.6022   -1.6538   -0.9114 H   0  0  0  0  0  0  0  0  0  0  0  0
    3.0207   -1.0011   -1.9489 H   0  0  0  0  0  0  0  0  0  0  0  0
    3.2371   -1.7495    0.8754 H   0  0  0  0  0  0  0  0  0  0  0  0
    4.3480   -0.5475   -0.0287 H   0  0  0  0  0  0  0  0  0  0  0  0
    3.1312    1.0103    1.1376 H   0  0  0  0  0  0  0  0  0  0  0  0
  1  2  1  0
  2  3  1  0
  3  4  1  0
  4  5  1  0
  3  6  1  0
  6  7  1  0
  7  8  1  0
  8  9  1  0
  9 10  1  0
 10 11  1  0
 11  8  1  0
  1 12  1  0
  2 13  1  0
  2 14  1  0
  3 15  1  0
  4 16  1  0
  4 17  1  0
  5 18  1  0
  6 19  1  0
  7 20  1  0
  7 21  1  0
  8 22  1  6
  9 23  1  0
  9 24  1  0
 10 25  1  0
 10 26  1  0
 11 27  1  0
M  END
$$$$

     RDKit          3D

 27 27  0  0  0  0  0  0  0  0999 V2000
   -1.6875   -0.4215   -2.0228 O   0  0  0  0  0  0  0  0  0  0  0  0
   -2.2859    0.5763   -1.3115 C   0  0  0  0  0  0  0  0  0  0  0  0
   -1.7842    0.6749    0.1282 C   0  0  0  0  0  0  0  0  0  0  0  0
   -2.1486   -0.6450    0.8362 C   0  0  0  0  0  0  0  0  0  0  0  0
   -3.5386   -0.7623    0.7325 O   0  0  0  0  0  0  0  0  0  0  0  0
   -0.3981    0.9392    0.1748 N   0  0  0  0  0  0  0  0  0  0  0  0
    0.5568    0.0104   -0.2082 C   0  0  0  0  0  0  0  0  0  0  0  0
    1.9676    0.5566   -0.3007 C   0  0  2  0  0  0  0  0  0  0  0  0
    2.9210   -0.5514   -0.7066 C   0  0  0  0  0  0  0  0  0  0  0  0
    3.2338   -0.5959    0.7639 C   0  0  0  0  0  0  0  0  0  0  0  0
    2.7153    0.7659    0.8598 N   0  0  0  0  0  0  0  0  0  0  0  0
   -2.3471   -0.8987   -2.5759 H   0  0  0  0  0  0  0  0  0  0  0  0
   -3.3787    0.3674   -1.2711 H   0  0  0  0  0  0  0  0  0  0  0  0
   -2.1598    1.5900   -1.7564 H   0  0  0  0  0  0  0  0  0  0  0  0
   -2.3428    1.4664    0.6567 H   0  0  0  0  0  0  0  0  0  0  0  0
   -1.6534   -1.4913    0.2978 H   0  0  0  0  0  0  0  0  0  0  0  0
   -1.8356   -0.5713    1.8676 H   0  0  0  0  0  0  0  0  0  0  0  0
   -3.9952   -0.1666    1.3960 H   0  0  0  0  0  0  0  0  0  0  0  0
   -0.1807    1.7171    0.7959 H   0  0  0  0  0  0  0  0  0  0  0  0
    0.3273   -0.4878   -1.1549 H   0  0  0  0  0  0  0  0  0  0  0  0
    0.5535   -0.8371    0.5616 H   0  0  0  0  0  0  0  0  0  0  0  0
    2.0169    1.3841   -1.0516 H   0  0  0  0  0  0  0  0  0  0  0  0
    2.4161   -1.4635   -1.0996 H   0  0  0  0  0  0  0  0  0  0  0  0
    3.8056   -0.2185   -1.2881 H   0  0  0  0  0  0  0  0  0  0  0  0
    2.6132   -1.3533    1.2618 H   0  0  0  0  0  0  0  0  0  0  0  0
    4.3091   -0.6118    1.0357 H   0  0  0  0  0  0  0  0  0  0  0  0
    2.2998    1.0277    1.7490 H   0  0  0  0  0  0  0  0  0  0  0  0
  1  2  1  0
  2  3  1  0
  3  4  1  0
  4  5  1  0
  3  6  1  0
  6  7  1  0
  7  8  1  0
  8  9  1  0
  9 10  1  0
 10 11  1  0
 11  8  1  0
  1 12  1  0
  2 13  1  0
  2 14  1  0
  3 15  1  0
  4 16  1  0
  4 17  1  0
  5 18  1  0
  6 19  1  0
  7 20  1  0
  7 21  1  0
  8 22  1  6
  9 23  1  0
  9 24  1  0
 10 25  1  0
 10 26  1  0
 11 27  1  0
M  END
$$$$

     RDKit          3D

 27 27  0  0  0  0  0  0  0  0999 V2000
    3.6273   -1.1441   -0.2760 O   0  0  0  0  0  0  0  0  0  0  0  0
    2.2267   -1.3093   -0.3274 C   0  0  0  0  0  0  0  0  0  0  0  0
    1.6730    0.0256   -0.8534 C   0  0  0  0  0  0  0  0  0  0  0  0
    2.2275    1.1549   -0.0140 C   0  0  0  0  0  0  0  0  0  0  0  0
    3.6191    1.0269    0.0040 O   0  0  0  0  0  0  0  0  0  0  0  0
    0.2521    0.0024   -0.9559 N   0  0  0  0  0  0  0  0  0  0  0  0
   -0.4652   -0.1123    0.2686 C   0  0  0  0  0  0  0  0  0  0  0  0
   -1.9328   -0.3933    0.0350 C   0  0  2  0  0  0  0  0  0  0  0  0
   -2.7084    0.6242   -0.7627 C   0  0  0  0  0  0  0  0  0  0  0  0
   -3.7436    0.6676    0.3448 C   0  0  0  0  0  0  0  0  0  0  0  0
   -2.7951   -0.0516    1.1633 N   0  0  0  0  0  0  0  0  0  0  0  0
    4.0872   -1.8480    0.2163 H   0  0  0  0  0  0  0  0  0  0  0  0
    2.0369   -2.0509   -1.1276 H   0  0  0  0  0  0  0  0  0  0  0  0
    1.8102   -1.6005    0.6402 H   0  0  0  0  0  0  0  0  0  0  0  0
    2.0891    0.1215   -1.8658 H   0  0  0  0  0  0  0  0  0  0  0  0
    1.8582    1.1995    0.9983 H   0  0  0  0  0  0  0  0  0  0  0  0
    2.0182    2.1457   -0.5053 H   0  0  0  0  0  0  0  0  0  0  0  0
    3.9474    0.8531    0.9325 H   0  0  0  0  0  0  0  0  0  0  0  0
   -0.0416   -0.6756   -1.6749 H   0  0  0  0  0  0  0  0  0  0  0  0
   -0.0407   -0.7791    1.0302 H   0  0  0  0  0  0  0  0  0  0  0  0
   -0.4631    0.9369    0.7344 H   0  0  0  0  0  0  0  0  0  0  0  0
   -2.1152   -1.4242   -0.3717 H   0  0  0  0  0  0  0  0  0  0  0  0
   -3.1283    0.2045   -1.7348 H   0  0  0  0  0  0  0  0  0  0  0  0
   -2.2309    1.5892   -0.9700 H   0  0  0  0  0  0  0  0  0  0  0  0
   -4.6491    0.0805    0.0489 H   0  0  0  0  0  0  0  0  0  0  0  0
   -3.9221    1.6876    0.6740 H   0  0  0  0  0  0  0  0  0  0  0  0
   -3.2368   -0.9312    1.5485 H   0  0  0  0  0  0  0  0  0  0  0  0
  1  2  1  0
  2  3  1  0
  3  4  1  0
  4  5  1  0
  3  6  1  0
  6  7  1  0
  7  8  1  0
  8  9  1  0
  9 10  1  0
 10 11  1  0
 11  8  1  0
  1 12  1  0
  2 13  1  0
  2 14  1  0
  3 15  1  0
  4 16  1  0
  4 17  1  0
  5 18  1  0
  6 19  1  0
  7 20  1  0
  7 21  1  0
  8 22  1  6
  9 23  1  0
  9 24  1  0
 10 25  1  0
 10 26  1  0
 11 27  1  0
M  END
$$$$

     RDKit          3D

 27 27  0  0  0  0  0  0  0  0999 V2000
   -2.3213    1.1798    1.5992 O   0  0  0  0  0  0  0  0  0  0  0  0
   -2.6659    0.3076    0.5736 C   0  0  0  0  0  0  0  0  0  0  0  0
   -1.6209   -0.7254    0.2898 C   0  0  0  0  0  0  0  0  0  0  0  0
   -2.1856   -1.6056   -0.8336 C   0  0  0  0  0  0  0  0  0  0  0  0
   -2.2560   -0.8037   -1.9754 O   0  0  0  0  0  0  0  0  0  0  0  0
   -0.3624   -0.2730   -0.1024 N   0  0  0  0  0  0  0  0  0  0  0  0
    0.4089    0.5101    0.7779 C   0  0  0  0  0  0  0  0  0  0  0  0
    1.7192    0.8812    0.0880 C   0  0  2  0  0  0  0  0  0  0  0  0
    2.5591   -0.3074   -0.3135 C   0  0  0  0  0  0  0  0  0  0  0  0
    3.7101    0.6138    0.0645 C   0  0  0  0  0  0  0  0  0  0  0  0
    2.7858    1.2401    1.0192 N   0  0  0  0  0  0  0  0  0  0  0  0
   -2.6615    2.0711    1.3344 H   0  0  0  0  0  0  0  0  0  0  0  0
   -3.5687   -0.2540    0.9509 H   0  0  0  0  0  0  0  0  0  0  0  0
   -2.9947    0.8113   -0.3490 H   0  0  0  0  0  0  0  0  0  0  0  0
   -1.5213   -1.3895    1.1754 H   0  0  0  0  0  0  0  0  0  0  0  0
   -3.1756   -1.9762   -0.5653 H   0  0  0  0  0  0  0  0  0  0  0  0
   -1.4240   -2.3833   -1.0375 H   0  0  0  0  0  0  0  0  0  0  0  0
   -3.1949   -0.5219   -2.1715 H   0  0  0  0  0  0  0  0  0  0  0  0
    0.0885   -0.7391   -0.8728 H   0  0  0  0  0  0  0  0  0  0  0  0
    0.7036   -0.0490    1.6882 H   0  0  0  0  0  0  0  0  0  0  0  0
   -0.0654    1.5004    1.0519 H   0  0  0  0  0  0  0  0  0  0  0  0
    1.5947    1.5822   -0.7552 H   0  0  0  0  0  0  0  0  0  0  0  0
    2.5382   -1.1713    0.3845 H   0  0  0  0  0  0  0  0  0  0  0  0
    2.6228   -0.5343   -1.3947 H   0  0  0  0  0  0  0  0  0  0  0  0
    4.5663    0.0874    0.5556 H   0  0  0  0  0  0  0  0  0  0  0  0
    3.9928    1.3528   -0.7097 H   0  0  0  0  0  0  0  0  0  0  0  0
    2.7282    0.5959    1.8509 H   0  0  0  0  0  0  0  0  0  0  0  0
  1  2  1  0
  2  3  1  0
  3  4  1  0
  4  5  1  0
  3  6  1  0
  6  7  1  0
  7  8  1  0
  8  9  1  0
  9 10  1  0
 10 11  1  0
 11  8  1  0
  1 12  1  0
  2 13  1  0
  2 14  1  0
  3 15  1  0
  4 16  1  0
  4 17  1  0
  5 18  1  0
  6 19  1  0
  7 20  1  0
  7 21  1  0
  8 22  1  6
  9 23  1  0
  9 24  1  0
 10 25  1  0
 10 26  1  0
 11 27  1  0
M  END
$$$$

     RDKit          3D

 27 27  0  0  0  0  0  0  0  0999 V2000
   -2.3676   -1.5463    1.0579 O   0  0  0  0  0  0  0  0  0  0  0  0
   -1.5124   -1.2638   -0.0344 C   0  0  0  0  0  0  0  0  0  0  0  0
   -1.3440    0.2340   -0.0331 C   0  0  0  0  0  0  0  0  0  0  0  0
   -2.7617    0.8202   -0.0746 C   0  0  0  0  0  0  0  0  0  0  0  0
   -2.7608    2.1739    0.0990 O   0  0  0  0  0  0  0  0  0  0  0  0
   -0.4945    0.7226   -0.9962 N   0  0  0  0  0  0  0  0  0  0  0  0
    0.8613    0.8742   -0.9517 C   0  0  0  0  0  0  0  0  0  0  0  0
    1.7908   -0.2493   -0.7692 C   0  0  2  0  0  0  0  0  0  0  0  0
    1.7886   -0.9903    0.5252 C   0  0  0  0  0  0  0  0  0  0  0  0
    2.8465    0.0833    0.9231 C   0  0  0  0  0  0  0  0  0  0  0  0
    3.1640    0.1726   -0.4763 N   0  0  0  0  0  0  0  0  0  0  0  0
   -1.7991   -1.5879    1.8835 H   0  0  0  0  0  0  0  0  0  0  0  0
   -2.1418   -1.4999   -0.9717 H   0  0  0  0  0  0  0  0  0  0  0  0
   -0.6809   -1.9037   -0.1072 H   0  0  0  0  0  0  0  0  0  0  0  0
   -0.9955    0.5537    1.0140 H   0  0  0  0  0  0  0  0  0  0  0  0
   -3.2988    0.3233    0.7586 H   0  0  0  0  0  0  0  0  0  0  0  0
   -3.2379    0.5424   -1.0383 H   0  0  0  0  0  0  0  0  0  0  0  0
   -3.1931    2.3861    0.9763 H   0  0  0  0  0  0  0  0  0  0  0  0
   -0.9420    0.9000   -1.9464 H   0  0  0  0  0  0  0  0  0  0  0  0
    1.1101    1.6913   -0.1510 H   0  0  0  0  0  0  0  0  0  0  0  0
    1.1849    1.4768   -1.9083 H   0  0  0  0  0  0  0  0  0  0  0  0
    1.7829   -0.9947   -1.6413 H   0  0  0  0  0  0  0  0  0  0  0  0
    0.9336   -0.9487    1.1993 H   0  0  0  0  0  0  0  0  0  0  0  0
    2.3200   -1.9651    0.4746 H   0  0  0  0  0  0  0  0  0  0  0  0
    3.6250   -0.3171    1.5966 H   0  0  0  0  0  0  0  0  0  0  0  0
    2.3221    0.9656    1.3099 H   0  0  0  0  0  0  0  0  0  0  0  0
    3.8005   -0.6531   -0.7182 H   0  0  0  0  0  0  0  0  0  0  0  0
  1  2  1  0
  2  3  1  0
  3  4  1  0
  4  5  1  0
  3  6  1  0
  6  7  1  0
  7  8  1  0
  8  9  1  0
  9 10  1  0
 10 11  1  0
 11  8  1  0
  1 12  1  0
  2 13  1  0
  2 14  1  0
  3 15  1  0
  4 16  1  0
  4 17  1  0
  5 18  1  0
  6 19  1  0
  7 20  1  0
  7 21  1  0
  8 22  1  6
  9 23  1  0
  9 24  1  0
 10 25  1  0
 10 26  1  0
 11 27  1  0
M  END
$$$$

     RDKit          3D

 27 27  0  0  0  0  0  0  0  0999 V2000
   -2.3880    1.9367    0.0507 O   0  0  0  0  0  0  0  0  0  0  0  0
   -2.0124    1.0842   -0.9661 C   0  0  0  0  0  0  0  0  0  0  0  0
   -1.6323   -0.2860   -0.5069 C   0  0  0  0  0  0  0  0  0  0  0  0
   -2.8554   -0.9440    0.1121 C   0  0  0  0  0  0  0  0  0  0  0  0
   -2.5050   -2.2573    0.4604 O   0  0  0  0  0  0  0  0  0  0  0  0
   -0.5321   -0.2578    0.4248 N   0  0  0  0  0  0  0  0  0  0  0  0
    0.6279    0.2744   -0.2196 C   0  0  0  0  0  0  0  0  0  0  0  0
    1.8000    0.2805    0.7461 C   0  0  2  0  0  0  0  0  0  0  0  0
    3.0467    0.8418    0.0896 C   0  0  0  0  0  0  0  0  0  0  0  0
    3.4878   -0.5781    0.0244 C   0  0  0  0  0  0  0  0  0  0  0  0
    2.3649   -1.0364    0.8241 N   0  0  0  0  0  0  0  0  0  0  0  0
   -2.9671    1.5696    0.7357 H   0  0  0  0  0  0  0  0  0  0  0  0
   -2.8950    1.0028   -1.6778 H   0  0  0  0  0  0  0  0  0  0  0  0
   -1.1913    1.5845   -1.5396 H   0  0  0  0  0  0  0  0  0  0  0  0
   -1.3656   -0.8784   -1.4311 H   0  0  0  0  0  0  0  0  0  0  0  0
   -3.6672   -0.9624   -0.6342 H   0  0  0  0  0  0  0  0  0  0  0  0
   -3.2016   -0.4066    1.0077 H   0  0  0  0  0  0  0  0  0  0  0  0
   -3.3175   -2.7211    0.7636 H   0  0  0  0  0  0  0  0  0  0  0  0
   -0.7673    0.3397    1.2416 H   0  0  0  0  0  0  0  0  0  0  0  0
    0.8369   -0.3411   -1.1130 H   0  0  0  0  0  0  0  0  0  0  0  0
    0.5345    1.3322   -0.5551 H   0  0  0  0  0  0  0  0  0  0  0  0
    1.5943    0.7973    1.6826 H   0  0  0  0  0  0  0  0  0  0  0  0
    2.8385    1.3294   -0.8931 H   0  0  0  0  0  0  0  0  0  0  0  0
    3.6760    1.4611    0.7617 H   0  0  0  0  0  0  0  0  0  0  0  0
    4.4888   -0.8101    0.4258 H   0  0  0  0  0  0  0  0  0  0  0  0
    3.3887   -0.9698   -1.0096 H   0  0  0  0  0  0  0  0  0  0  0  0
    2.6129   -1.3853    1.7724 H   0  0  0  0  0  0  0  0  0  0  0  0
  1  2  1  0
  2  3  1  0
  3  4  1  0
  4  5  1  0
  3  6  1  0
  6  7  1  0
  7  8  1  0
  8  9  1  0
  9 10  1  0
 10 11  1  0
 11  8  1  0
  1 12  1  0
  2 13  1  0
  2 14  1  0
  3 15  1  0
  4 16  1  0
  4 17  1  0
  5 18  1  0
  6 19  1  0
  7 20  1  0
  7 21  1  0
  8 22  1  1
  9 23  1  0
  9 24  1  0
 10 25  1  0
 10 26  1  0
 11 27  1  0
M  END
$$$$
