
     RDKit          3D

 25 26  0  0  0  0  0  0  0  0999 V2000
    2.9636   -0.4952    0.3568 C   0  0  0  0  0  0  0  0  0  0  0  0
    2.3370    0.7230    0.8302 N   0  0  0  0  0  0  0  0  0  0  0  0
    1.5760    1.5734   -0.4353 S   0  0  0  0  0  6  0  0  0  0  0  0
    2.2957    1.2230   -1.7211 O   0  0  0  0  0  0  0  0  0  0  0  0
    1.7157    3.0352   -0.2381 O   0  0  0  0  0  0  0  0  0  0  0  0
   -0.0555    1.0745   -0.6175 N   0  0  0  0  0  0  0  0  0  0  0  0
   -0.8731    1.3062    0.5194 C   0  0  0  0  0  0  0  0  0  0  0  0
   -1.7400    0.0816    0.6903 C   0  0  1  0  0  0  0  0  0  0  0  0
   -2.7081   -0.1717   -0.4034 C   0  0  0  0  0  0  0  0  0  0  0  0
   -1.3994   -0.8648   -0.3703 C   0  0  2  0  0  0  0  0  0  0  0  0
   -1.4297   -2.3010   -0.1711 N   0  0  0  0  0  0  0  0  0  0  0  0
   -0.2056   -0.2615   -1.0661 C   0  0  0  0  0  0  0  0  0  0  0  0
    4.0334   -0.4690    0.7047 H   0  0  0  0  0  0  0  0  0  0  0  0
    2.5053   -1.4055    0.7575 H   0  0  0  0  0  0  0  0  0  0  0  0
    3.0288   -0.4747   -0.7558 H   0  0  0  0  0  0  0  0  0  0  0  0
    1.7529    0.5630    1.6622 H   0  0  0  0  0  0  0  0  0  0  0  0
   -0.3484    1.5947    1.4331 H   0  0  0  0  0  0  0  0  0  0  0  0
   -1.5812    2.1497    0.2735 H   0  0  0  0  0  0  0  0  0  0  0  0
   -1.8847   -0.2959    1.7143 H   0  0  0  0  0  0  0  0  0  0  0  0
   -3.6078   -0.7769   -0.1769 H   0  0  0  0  0  0  0  0  0  0  0  0
   -2.9080    0.6520   -1.1258 H   0  0  0  0  0  0  0  0  0  0  0  0
   -2.0483   -2.7365   -0.8667 H   0  0  0  0  0  0  0  0  0  0  0  0
   -1.6449   -2.5785    0.8018 H   0  0  0  0  0  0  0  0  0  0  0  0
    0.6722   -0.9063   -0.9378 H   0  0  0  0  0  0  0  0  0  0  0  0
   -0.4458   -0.2388   -2.1612 H   0  0  0  0  0  0  0  0  0  0  0  0
  1  2  1  0
  2  3  1  0
  3  4  2  0
  3  5  2  0
  3  6  1  0
  6  7  1  0
  7  8  1  0
  8  9  1  0
  9 10  1  0
 10 11  1  1
 10 12  1  0
 12  6  1  0
 10  8  1  0
  1 13  1  0
  1 14  1  0
  1 15  1  0
  2 16  1  0
  7 17  1  0
  7 18  1  0
  8 19  1  1
  9 20  1  0
  9 21  1  0
 11 22  1  0
 11 23  1  0
 12 24  1  0
 12 25  1  0
M  END
$$$$

     RDKit          3D

 25 26  0  0  0  0  0  0  0  0999 V2000
    3.6551    0.0319   -0.9440 C   0  0  0  0  0  0  0  0  0  0  0  0
    2.8610    0.6933    0.0735 N   0  0  0  0  0  0  0  0  0  0  0  0
    1.6457   -0.3923    0.6004 S   0  0  0  0  0  6  0  0  0  0  0  0
    1.2710    0.0095    2.0152 O   0  0  0  0  0  0  0  0  0  0  0  0
    2.1122   -1.7998    0.6203 O   0  0  0  0  0  0  0  0  0  0  0  0
    0.2452   -0.1764   -0.3836 N   0  0  0  0  0  0  0  0  0  0  0  0
   -0.2808    1.1420   -0.2701 C   0  0  0  0  0  0  0  0  0  0  0  0
   -1.6764    1.0147    0.2813 C   0  0  1  0  0  0  0  0  0  0  0  0
   -2.6823    0.5413   -0.7313 C   0  0  0  0  0  0  0  0  0  0  0  0
   -2.0427   -0.4054    0.2111 C   0  0  2  0  0  0  0  0  0  0  0  0
   -2.9111   -1.0451    1.1537 N   0  0  0  0  0  0  0  0  0  0  0  0
   -0.7811   -1.1247   -0.1296 C   0  0  0  0  0  0  0  0  0  0  0  0
    3.6917   -1.0551   -0.8051 H   0  0  0  0  0  0  0  0  0  0  0  0
    4.6769    0.4135   -0.9114 H   0  0  0  0  0  0  0  0  0  0  0  0
    3.2017    0.2732   -1.9264 H   0  0  0  0  0  0  0  0  0  0  0  0
    3.4452    1.0810    0.8331 H   0  0  0  0  0  0  0  0  0  0  0  0
    0.3460    1.8422    0.2937 H   0  0  0  0  0  0  0  0  0  0  0  0
   -0.3590    1.5689   -1.3125 H   0  0  0  0  0  0  0  0  0  0  0  0
   -1.9911    1.5749    1.1639 H   0  0  0  0  0  0  0  0  0  0  0  0
   -3.7217    0.8188   -0.5533 H   0  0  0  0  0  0  0  0  0  0  0  0
   -2.4037    0.5118   -1.8025 H   0  0  0  0  0  0  0  0  0  0  0  0
   -3.0697   -0.5306    2.0285 H   0  0  0  0  0  0  0  0  0  0  0  0
   -3.7760   -1.4185    0.7024 H   0  0  0  0  0  0  0  0  0  0  0  0
   -0.9638   -1.8290   -0.9646 H   0  0  0  0  0  0  0  0  0  0  0  0
   -0.4926   -1.7400    0.7572 H   0  0  0  0  0  0  0  0  0  0  0  0
  1  2  1  0
  2  3  1  0
  3  4  2  0
  3  5  2  0
  3  6  1  0
  6  7  1  0
  7  8  1  0
  8  9  1  0
  9 10  1  0
 10 11  1  1
 10 12  1  0
 12  6  1  0
 10  8  1  0
  1 13  1  0
  1 14  1  0
  1 15  1  0
  2 16  1  0
  7 17  1  0
  7 18  1  0
  8 19  1  1
  9 20  1  0
  9 21  1  0
 11 22  1  0
 11 23  1  0
 12 24  1  0
 12 25  1  0
M  END
$$$$

     RDKit          3D

 25 26  0  0  0  0  0  0  0  0999 V2000
    2.5509    0.6049   -0.3192 C   0  0  0  0  0  0  0  0  0  0  0  0
    1.9126   -0.5695   -0.8802 N   0  0  0  0  0  0  0  0  0  0  0  0
    1.2901   -1.6289    0.2956 S   0  0  0  0  0  6  0  0  0  0  0  0
    2.1510   -1.5060    1.5362 O   0  0  0  0  0  0  0  0  0  0  0  0
    1.4370   -3.0405   -0.1951 O   0  0  0  0  0  0  0  0  0  0  0  0
   -0.3333   -1.2957    0.7365 N   0  0  0  0  0  0  0  0  0  0  0  0
   -1.1624   -1.4462   -0.4435 C   0  0  0  0  0  0  0  0  0  0  0  0
   -1.3872   -0.0442   -0.9279 C   0  0  1  0  0  0  0  0  0  0  0  0
   -2.5465    0.6608   -0.2505 C   0  0  0  0  0  0  0  0  0  0  0  0
   -1.1579    0.8668    0.1930 C   0  0  2  0  0  0  0  0  0  0  0  0
   -0.6130    2.1945    0.0293 N   0  0  0  0  0  0  0  0  0  0  0  0
   -0.5349    0.0106    1.2587 C   0  0  0  0  0  0  0  0  0  0  0  0
    3.6308    0.6841   -0.6359 H   0  0  0  0  0  0  0  0  0  0  0  0
    2.5666    0.6103    0.7814 H   0  0  0  0  0  0  0  0  0  0  0  0
    2.0479    1.4887   -0.7634 H   0  0  0  0  0  0  0  0  0  0  0  0
    2.6418   -1.0786   -1.4269 H   0  0  0  0  0  0  0  0  0  0  0  0
   -2.1312   -1.8992   -0.1191 H   0  0  0  0  0  0  0  0  0  0  0  0
   -0.6449   -2.0710   -1.2059 H   0  0  0  0  0  0  0  0  0  0  0  0
   -1.0704    0.2637   -1.9353 H   0  0  0  0  0  0  0  0  0  0  0  0
   -3.2623    0.0512    0.3240 H   0  0  0  0  0  0  0  0  0  0  0  0
   -3.0172    1.4618   -0.8360 H   0  0  0  0  0  0  0  0  0  0  0  0
   -1.4329    2.8603    0.1534 H   0  0  0  0  0  0  0  0  0  0  0  0
    0.0171    2.4084    0.8493 H   0  0  0  0  0  0  0  0  0  0  0  0
    0.3527    0.4877    1.6999 H   0  0  0  0  0  0  0  0  0  0  0  0
   -1.3043   -0.0740    2.0815 H   0  0  0  0  0  0  0  0  0  0  0  0
  1  2  1  0
  2  3  1  0
  3  4  2  0
  3  5  2  0
  3  6  1  0
  6  7  1  0
  7  8  1  0
  8  9  1  0
  9 10  1  0
 10 11  1  6
 10 12  1  0
 12  6  1  0
 10  8  1  0
  1 13  1  0
  1 14  1  0
  1 15  1  0
  2 16  1  0
  7 17  1  0
  7 18  1  0
  8 19  1  6
  9 20  1  0
  9 21  1  0
 11 22  1  0
 11 23  1  0
 12 24  1  0
 12 25  1  0
M  END
$$$$

     RDKit          3D

 25 26  0  0  0  0  0  0  0  0999 V2000
    3.0955    0.4323    0.3787 C   0  0  0  0  0  0  0  0  0  0  0  0
    2.4282   -0.8013    0.6522 N   0  0  0  0  0  0  0  0  0  0  0  0
    1.5469   -1.4376   -0.6597 S   0  0  0  0  0  6  0  0  0  0  0  0
    1.4563   -2.9436   -0.4550 O   0  0  0  0  0  0  0  0  0  0  0  0
    2.2262   -1.1996   -1.9523 O   0  0  0  0  0  0  0  0  0  0  0  0
   -0.0540   -0.8334   -0.6119 N   0  0  0  0  0  0  0  0  0  0  0  0
   -0.7707   -1.2015    0.5646 C   0  0  0  0  0  0  0  0  0  0  0  0
   -1.9902   -0.2838    0.4937 C   0  0  1  0  0  0  0  0  0  0  0  0
   -1.8671    1.1055    1.0345 C   0  0  0  0  0  0  0  0  0  0  0  0
   -1.6046    0.8534   -0.3994 C   0  0  2  0  0  0  0  0  0  0  0  0
   -2.5110    1.3199   -1.4133 N   0  0  0  0  0  0  0  0  0  0  0  0
   -0.1524    0.5799   -0.7878 C   0  0  0  0  0  0  0  0  0  0  0  0
    4.1696    0.3532    0.6891 H   0  0  0  0  0  0  0  0  0  0  0  0
    2.6133    1.2206    1.0028 H   0  0  0  0  0  0  0  0  0  0  0  0
    2.9887    0.6587   -0.6978 H   0  0  0  0  0  0  0  0  0  0  0  0
    1.8683   -0.8170    1.5234 H   0  0  0  0  0  0  0  0  0  0  0  0
   -1.1261   -2.2504    0.5070 H   0  0  0  0  0  0  0  0  0  0  0  0
   -0.1608   -1.0026    1.4509 H   0  0  0  0  0  0  0  0  0  0  0  0
   -2.9860   -0.7209    0.3693 H   0  0  0  0  0  0  0  0  0  0  0  0
   -2.8179    1.5832    1.3444 H   0  0  0  0  0  0  0  0  0  0  0  0
   -1.0158    1.3859    1.6915 H   0  0  0  0  0  0  0  0  0  0  0  0
   -2.3034    0.8673   -2.3251 H   0  0  0  0  0  0  0  0  0  0  0  0
   -3.4914    1.0464   -1.1466 H   0  0  0  0  0  0  0  0  0  0  0  0
   -0.0134    0.9320   -1.8078 H   0  0  0  0  0  0  0  0  0  0  0  0
    0.4718    1.1535   -0.0820 H   0  0  0  0  0  0  0  0  0  0  0  0
  1  2  1  0
  2  3  1  0
  3  4  2  0
  3  5  2  0
  3  6  1  0
  6  7  1  0
  7  8  1  0
  8  9  1  0
  9 10  1  0
 10 11  1  6
 10 12  1  0
 12  6  1  0
 10  8  1  0
  1 13  1  0
  1 14  1  0
  1 15  1  0
  2 16  1  0
  7 17  1  0
  7 18  1  0
  8 19  1  6
  9 20  1  0
  9 21  1  0
 11 22  1  0
 11 23  1  0
 12 24  1  0
 12 25  1  0
M  END
$$$$

     RDKit          3D

 25 26  0  0  0  0  0  0  0  0999 V2000
    3.3409    0.0671   -0.2769 C   0  0  0  0  0  0  0  0  0  0  0  0
    2.8327   -0.5587    0.8962 N   0  0  0  0  0  0  0  0  0  0  0  0
    1.4258    0.1536    1.5394 S   0  0  0  0  0  6  0  0  0  0  0  0
    1.3852    1.5964    1.1136 O   0  0  0  0  0  0  0  0  0  0  0  0
    1.3643    0.0728    3.0369 O   0  0  0  0  0  0  0  0  0  0  0  0
    0.0695   -0.6250    0.8020 N   0  0  0  0  0  0  0  0  0  0  0  0
    0.1208   -0.3969   -0.6004 C   0  0  0  0  0  0  0  0  0  0  0  0
   -1.2730   -0.1324   -1.0925 C   0  0  1  0  0  0  0  0  0  0  0  0
   -2.4086   -0.9933   -0.7297 C   0  0  0  0  0  0  0  0  0  0  0  0
   -2.0302    0.1922    0.1281 C   0  0  2  0  0  0  0  0  0  0  0  0
   -2.8560    1.3553    0.1578 N   0  0  0  0  0  0  0  0  0  0  0  0
   -1.1736   -0.1666    1.3152 C   0  0  0  0  0  0  0  0  0  0  0  0
    4.4470    0.0563   -0.3475 H   0  0  0  0  0  0  0  0  0  0  0  0
    2.9875    1.1093   -0.3328 H   0  0  0  0  0  0  0  0  0  0  0  0
    2.9272   -0.4643   -1.1671 H   0  0  0  0  0  0  0  0  0  0  0  0
    2.8491   -1.5846    0.9011 H   0  0  0  0  0  0  0  0  0  0  0  0
    0.6006   -1.2757   -1.1168 H   0  0  0  0  0  0  0  0  0  0  0  0
    0.7401    0.4864   -0.8994 H   0  0  0  0  0  0  0  0  0  0  0  0
   -1.3649    0.5062   -1.9953 H   0  0  0  0  0  0  0  0  0  0  0  0
   -2.2841   -2.0164   -0.3406 H   0  0  0  0  0  0  0  0  0  0  0  0
   -3.3381   -0.8467   -1.3015 H   0  0  0  0  0  0  0  0  0  0  0  0
   -2.8799    1.8220    1.1054 H   0  0  0  0  0  0  0  0  0  0  0  0
   -2.7030    2.0133   -0.6159 H   0  0  0  0  0  0  0  0  0  0  0  0
   -1.0899    0.6483    2.0576 H   0  0  0  0  0  0  0  0  0  0  0  0
   -1.6894   -1.0186    1.8388 H   0  0  0  0  0  0  0  0  0  0  0  0
  1  2  1  0
  2  3  1  0
  3  4  2  0
  3  5  2  0
  3  6  1  0
  6  7  1  0
  7  8  1  0
  8  9  1  0
  9 10  1  0
 10 11  1  6
 10 12  1  0
 12  6  1  0
 10  8  1  0
  1 13  1  0
  1 14  1  0
  1 15  1  0
  2 16  1  0
  7 17  1  0
  7 18  1  0
  8 19  1  6
  9 20  1  0
  9 21  1  0
 11 22  1  0
 11 23  1  0
 12 24  1  0
 12 25  1  0
M  END
$$$$

     RDKit          3D

 25 26  0  0  0  0  0  0  0  0999 V2000
   -3.7143    0.5834   -0.0158 C   0  0  0  0  0  0  0  0  0  0  0  0
   -2.8996   -0.4696   -0.6023 N   0  0  0  0  0  0  0  0  0  0  0  0
   -1.6103   -0.8964    0.4263 S   0  0  0  0  0  6  0  0  0  0  0  0
   -1.3527   -2.3702    0.3147 O   0  0  0  0  0  0  0  0  0  0  0  0
   -2.0229   -0.6416    1.8609 O   0  0  0  0  0  0  0  0  0  0  0  0
   -0.1874    0.0267    0.1406 N   0  0  0  0  0  0  0  0  0  0  0  0
    0.3383   -0.1411   -1.1748 C   0  0  0  0  0  0  0  0  0  0  0  0
    1.7865    0.2696   -1.0171 C   0  0  1  0  0  0  0  0  0  0  0  0
    2.0510    1.4657   -0.1830 C   0  0  0  0  0  0  0  0  0  0  0  0
    2.0939    0.1112    0.4158 C   0  0  2  0  0  0  0  0  0  0  0  0
    3.3520   -0.4673    0.8433 N   0  0  0  0  0  0  0  0  0  0  0  0
    0.8192   -0.3435    1.0860 C   0  0  0  0  0  0  0  0  0  0  0  0
   -3.1658    1.5394    0.0856 H   0  0  0  0  0  0  0  0  0  0  0  0
   -3.9402    0.2332    1.0314 H   0  0  0  0  0  0  0  0  0  0  0  0
   -4.6711    0.7067   -0.5471 H   0  0  0  0  0  0  0  0  0  0  0  0
   -2.6022   -0.2266   -1.5722 H   0  0  0  0  0  0  0  0  0  0  0  0
   -0.1124    0.5969   -1.8962 H   0  0  0  0  0  0  0  0  0  0  0  0
    0.2576   -1.1725   -1.5663 H   0  0  0  0  0  0  0  0  0  0  0  0
    2.5361   -0.1048   -1.7397 H   0  0  0  0  0  0  0  0  0  0  0  0
    3.0245    2.0098   -0.2712 H   0  0  0  0  0  0  0  0  0  0  0  0
    1.2181    2.1618    0.0526 H   0  0  0  0  0  0  0  0  0  0  0  0
    3.2069   -1.5190    0.8694 H   0  0  0  0  0  0  0  0  0  0  0  0
    4.0652   -0.2058    0.1289 H   0  0  0  0  0  0  0  0  0  0  0  0
    0.6760    0.2775    2.0084 H   0  0  0  0  0  0  0  0  0  0  0  0
    0.8537   -1.4232    1.3215 H   0  0  0  0  0  0  0  0  0  0  0  0
  1  2  1  0
  2  3  1  0
  3  4  2  0
  3  5  2  0
  3  6  1  0
  6  7  1  0
  7  8  1  0
  8  9  1  0
  9 10  1  0
 10 11  1  6
 10 12  1  0
 12  6  1  0
 10  8  1  0
  1 13  1  0
  1 14  1  0
  1 15  1  0
  2 16  1  0
  7 17  1  0
  7 18  1  0
  8 19  1  6
  9 20  1  0
  9 21  1  0
 11 22  1  0
 11 23  1  0
 12 24  1  0
 12 25  1  0
M  END
$$$$

     RDKit          3D

 25 26  0  0  0  0  0  0  0  0999 V2000
    3.8328   -0.1731    0.1869 C   0  0  0  0  0  0  0  0  0  0  0  0
    2.7771   -0.9941    0.7537 N   0  0  0  0  0  0  0  0  0  0  0  0
    1.4392    0.0202    1.0392 S   0  0  0  0  0  6  0  0  0  0  0  0
    0.7075   -0.5081    2.2530 O   0  0  0  0  0  0  0  0  0  0  0  0
    1.9467    1.3935    1.3792 O   0  0  0  0  0  0  0  0  0  0  0  0
    0.3552    0.1391   -0.2664 N   0  0  0  0  0  0  0  0  0  0  0  0
   -0.2644   -1.0683   -0.6615 C   0  0  0  0  0  0  0  0  0  0  0  0
   -1.7358   -0.7495   -0.8630 C   0  0  1  0  0  0  0  0  0  0  0  0
   -2.4842   -0.5605    0.4389 C   0  0  0  0  0  0  0  0  0  0  0  0
   -1.9729    0.5957   -0.3300 C   0  0  2  0  0  0  0  0  0  0  0  0
   -2.9457    1.4891   -0.9117 N   0  0  0  0  0  0  0  0  0  0  0  0
   -0.6141    1.1670   -0.1033 C   0  0  0  0  0  0  0  0  0  0  0  0
    4.4502    0.2621    1.0090 H   0  0  0  0  0  0  0  0  0  0  0  0
    3.3713    0.6854   -0.3430 H   0  0  0  0  0  0  0  0  0  0  0  0
    4.4482   -0.7306   -0.5446 H   0  0  0  0  0  0  0  0  0  0  0  0
    2.5407   -1.7193    0.0388 H   0  0  0  0  0  0  0  0  0  0  0  0
    0.1842   -1.5973   -1.5059 H   0  0  0  0  0  0  0  0  0  0  0  0
   -0.2333   -1.7777    0.2168 H   0  0  0  0  0  0  0  0  0  0  0  0
   -2.2562   -1.1040   -1.7540 H   0  0  0  0  0  0  0  0  0  0  0  0
   -3.5795   -0.7140    0.4327 H   0  0  0  0  0  0  0  0  0  0  0  0
   -2.0055   -0.8581    1.3900 H   0  0  0  0  0  0  0  0  0  0  0  0
   -3.1433    2.2298   -0.1738 H   0  0  0  0  0  0  0  0  0  0  0  0
   -3.8494    0.9699   -1.0709 H   0  0  0  0  0  0  0  0  0  0  0  0
   -0.4705    2.0186   -0.8042 H   0  0  0  0  0  0  0  0  0  0  0  0
   -0.4982    1.5842    0.9311 H   0  0  0  0  0  0  0  0  0  0  0  0
  1  2  1  0
  2  3  1  0
  3  4  2  0
  3  5  2  0
  3  6  1  0
  6  7  1  0
  7  8  1  0
  8  9  1  0
  9 10  1  0
 10 11  1  6
 10 12  1  0
 12  6  1  0
 10  8  1  0
  1 13  1  0
  1 14  1  0
  1 15  1  0
  2 16  1  0
  7 17  1  0
  7 18  1  0
  8 19  1  6
  9 20  1  0
  9 21  1  0
 11 22  1  0
 11 23  1  0
 12 24  1  0
 12 25  1  0
M  END
$$$$

     RDKit          3D

 25 26  0  0  0  0  0  0  0  0999 V2000
    3.3590   -0.7988   -0.3555 C   0  0  0  0  0  0  0  0  0  0  0  0
    2.9374    0.5256   -0.7366 N   0  0  0  0  0  0  0  0  0  0  0  0
    1.6616    1.0308    0.2851 S   0  0  0  0  0  6  0  0  0  0  0  0
    1.7123    2.5454    0.3548 O   0  0  0  0  0  0  0  0  0  0  0  0
    1.8986    0.5251    1.6621 O   0  0  0  0  0  0  0  0  0  0  0  0
    0.1126    0.6098   -0.3103 N   0  0  0  0  0  0  0  0  0  0  0  0
   -0.0796   -0.8117   -0.4419 C   0  0  0  0  0  0  0  0  0  0  0  0
   -1.6023   -0.8675   -0.6303 C   0  0  1  0  0  0  0  0  0  0  0  0
   -2.3842   -1.1722    0.5669 C   0  0  0  0  0  0  0  0  0  0  0  0
   -2.0851    0.2387    0.2576 C   0  0  2  0  0  0  0  0  0  0  0  0
   -3.1731    1.0821   -0.1654 N   0  0  0  0  0  0  0  0  0  0  0  0
   -0.8521    0.9160    0.7584 C   0  0  0  0  0  0  0  0  0  0  0  0
    2.7231   -1.5517   -0.8519 H   0  0  0  0  0  0  0  0  0  0  0  0
    3.2703   -0.9751    0.7372 H   0  0  0  0  0  0  0  0  0  0  0  0
    4.4307   -0.9909   -0.6395 H   0  0  0  0  0  0  0  0  0  0  0  0
    2.5740    0.5394   -1.7227 H   0  0  0  0  0  0  0  0  0  0  0  0
    0.3949   -1.2365   -1.3419 H   0  0  0  0  0  0  0  0  0  0  0  0
    0.1913   -1.3630    0.4841 H   0  0  0  0  0  0  0  0  0  0  0  0
   -1.9857   -0.9282   -1.6592 H   0  0  0  0  0  0  0  0  0  0  0  0
   -3.4388   -1.4981    0.3961 H   0  0  0  0  0  0  0  0  0  0  0  0
   -1.8858   -1.6460    1.4389 H   0  0  0  0  0  0  0  0  0  0  0  0
   -3.4275    1.6959    0.6558 H   0  0  0  0  0  0  0  0  0  0  0  0
   -2.9165    1.7313   -0.9399 H   0  0  0  0  0  0  0  0  0  0  0  0
   -0.5173    0.4010    1.6853 H   0  0  0  0  0  0  0  0  0  0  0  0
   -0.9177    1.9988    0.8451 H   0  0  0  0  0  0  0  0  0  0  0  0
  1  2  1  0
  2  3  1  0
  3  4  2  0
  3  5  2  0
  3  6  1  0
  6  7  1  0
  7  8  1  0
  8  9  1  0
  9 10  1  0
 10 11  1  6
 10 12  1  0
 12  6  1  0
 10  8  1  0
  1 13  1  0
  1 14  1  0
  1 15  1  0
  2 16  1  0
  7 17  1  0
  7 18  1  0
  8 19  1  6
  9 20  1  0
  9 21  1  0
 11 22  1  0
 11 23  1  0
 12 24  1  0
 12 25  1  0
M  END
$$$$
