
     RDKit          3D

 31 32  0  0  0  0  0  0  0  0999 V2000
   -1.6860   -1.9099   -1.3361 O   0  0  0  0  0  0  0  0  0  0  0  0
   -2.3243   -0.9644   -0.7987 C   0  0  0  0  0  0  0  0  0  0  0  0
   -3.7480   -0.9474   -0.7345 N   0  0  0  0  0  0  0  0  0  0  0  0
   -4.2125    0.1673    0.0645 C   0  0  0  0  0  0  0  0  0  0  0  0
   -2.9685    0.5874    0.8411 C   0  0  0  0  0  0  0  0  0  0  0  0
   -1.8655    0.2807   -0.1405 C   0  0  1  0  0  0  0  0  0  0  0  0
   -0.6116    0.1980    0.5293 N   0  0  0  0  0  0  0  0  0  0  0  0
    0.5415    0.0547   -0.2950 C   0  0  1  0  0  0  0  0  0  0  0  0
    1.4760    1.2258   -0.0066 C   0  0  0  0  0  0  0  0  0  0  0  0
    2.6932    1.1795   -0.6864 N   0  0  0  0  0  0  0  0  0  0  0  0
    3.6413    0.2146   -0.3401 C   0  0  0  0  0  0  0  0  0  0  0  0
    3.3291   -0.5485    0.8827 C   0  0  0  0  0  0  0  0  0  0  0  0
    2.0785   -1.0196    1.0728 O   0  0  0  0  0  0  0  0  0  0  0  0
    1.3127   -1.2109   -0.0550 C   0  0  0  0  0  0  0  0  0  0  0  0
   -4.4328   -1.6302   -1.1849 H   0  0  0  0  0  0  0  0  0  0  0  0
   -5.0170   -0.1971    0.7124 H   0  0  0  0  0  0  0  0  0  0  0  0
   -4.5807    1.0131   -0.5895 H   0  0  0  0  0  0  0  0  0  0  0  0
   -3.0242    1.6724    1.1028 H   0  0  0  0  0  0  0  0  0  0  0  0
   -2.8816   -0.0803    1.7068 H   0  0  0  0  0  0  0  0  0  0  0  0
   -1.7998    1.0850   -0.9430 H   0  0  0  0  0  0  0  0  0  0  0  0
   -0.6059   -0.2286    1.4580 H   0  0  0  0  0  0  0  0  0  0  0  0
    0.2758    0.1802   -1.3868 H   0  0  0  0  0  0  0  0  0  0  0  0
    1.6787    1.3269    1.1026 H   0  0  0  0  0  0  0  0  0  0  0  0
    0.9194    2.1415   -0.2721 H   0  0  0  0  0  0  0  0  0  0  0  0
    3.0553    2.0685   -1.0739 H   0  0  0  0  0  0  0  0  0  0  0  0
    3.9530   -0.4619   -1.1887 H   0  0  0  0  0  0  0  0  0  0  0  0
    4.6070    0.7687   -0.1123 H   0  0  0  0  0  0  0  0  0  0  0  0
    4.0192   -1.4428    0.9279 H   0  0  0  0  0  0  0  0  0  0  0  0
    3.6214    0.0521    1.7822 H   0  0  0  0  0  0  0  0  0  0  0  0
    0.6430   -2.0696    0.1321 H   0  0  0  0  0  0  0  0  0  0  0  0
    1.9133   -1.5053   -0.9513 H   0  0  0  0  0  0  0  0  0  0  0  0
  1  2  2  0
  2  3  1  0
  3  4  1  0
  4  5  1  0
  5  6  1  0
  6  7  1  0
  7  8  1  0
  8  9  1  0
  9 10  1  0
 10 11  1  0
 11 12  1  0
 12 13  1  0
 13 14  1  0
  6  2  1  0
 14  8  1  0
  3 15  1  0
  4 16  1  0
  4 17  1  0
  5 18  1  0
  5 19  1  0
  6 20  1  6
  7 21  1  0
  8 22  1  6
  9 23  1  0
  9 24  1  0
 10 25  1  0
 11 26  1  0
 11 27  1  0
 12 28  1  0
 12 29  1  0
 14 30  1  0
 14 31  1  0
M  END
$$$$

     RDKit          3D

 31 32  0  0  0  0  0  0  0  0999 V2000
    1.5658    1.6231   -1.5032 O   0  0  0  0  0  0  0  0  0  0  0  0
    2.0475    0.7723   -0.7262 C   0  0  0  0  0  0  0  0  0  0  0  0
    3.0941    1.0549    0.1990 N   0  0  0  0  0  0  0  0  0  0  0  0
    3.3923   -0.1760    0.8991 C   0  0  0  0  0  0  0  0  0  0  0  0
    2.9979   -1.2272   -0.1167 C   0  0  0  0  0  0  0  0  0  0  0  0
    1.6514   -0.6471   -0.6092 C   0  0  1  0  0  0  0  0  0  0  0  0
    0.6949   -0.9595    0.3742 N   0  0  0  0  0  0  0  0  0  0  0  0
   -0.6047   -0.4377    0.3075 C   0  0  1  0  0  0  0  0  0  0  0  0
   -0.7921    1.0326    0.3998 C   0  0  0  0  0  0  0  0  0  0  0  0
   -2.0257    1.3402    1.1364 N   0  0  0  0  0  0  0  0  0  0  0  0
   -3.1256    0.5036    0.7382 C   0  0  0  0  0  0  0  0  0  0  0  0
   -3.2612    0.4716   -0.7452 C   0  0  0  0  0  0  0  0  0  0  0  0
   -2.1508    0.1086   -1.4527 O   0  0  0  0  0  0  0  0  0  0  0  0
   -1.3888   -0.9032   -0.9227 C   0  0  0  0  0  0  0  0  0  0  0  0
    3.5959    1.9486    0.3891 H   0  0  0  0  0  0  0  0  0  0  0  0
    4.4626   -0.2542    1.1813 H   0  0  0  0  0  0  0  0  0  0  0  0
    2.7851   -0.2598    1.8388 H   0  0  0  0  0  0  0  0  0  0  0  0
    3.7461   -1.2583   -0.9089 H   0  0  0  0  0  0  0  0  0  0  0  0
    2.8303   -2.1825    0.4031 H   0  0  0  0  0  0  0  0  0  0  0  0
    1.4565   -1.1117   -1.6006 H   0  0  0  0  0  0  0  0  0  0  0  0
    0.6518   -1.9759    0.5945 H   0  0  0  0  0  0  0  0  0  0  0  0
   -1.1773   -0.8852    1.1839 H   0  0  0  0  0  0  0  0  0  0  0  0
   -0.9858    1.4522   -0.6330 H   0  0  0  0  0  0  0  0  0  0  0  0
    0.0060    1.6064    0.8645 H   0  0  0  0  0  0  0  0  0  0  0  0
   -1.8840    1.4207    2.1499 H   0  0  0  0  0  0  0  0  0  0  0  0
   -4.0529    1.0306    1.1208 H   0  0  0  0  0  0  0  0  0  0  0  0
   -3.1599   -0.4823    1.2182 H   0  0  0  0  0  0  0  0  0  0  0  0
   -4.1642   -0.1424   -1.0377 H   0  0  0  0  0  0  0  0  0  0  0  0
   -3.5580    1.5181   -1.0527 H   0  0  0  0  0  0  0  0  0  0  0  0
   -2.0134   -1.7752   -0.7140 H   0  0  0  0  0  0  0  0  0  0  0  0
   -0.6339   -1.2052   -1.6727 H   0  0  0  0  0  0  0  0  0  0  0  0
  1  2  2  0
  2  3  1  0
  3  4  1  0
  4  5  1  0
  5  6  1  0
  6  7  1  0
  7  8  1  0
  8  9  1  0
  9 10  1  0
 10 11  1  0
 11 12  1  0
 12 13  1  0
 13 14  1  0
  6  2  1  0
 14  8  1  0
  3 15  1  0
  4 16  1  0
  4 17  1  0
  5 18  1  0
  5 19  1  0
  6 20  1  6
  7 21  1  0
  8 22  1  1
  9 23  1  0
  9 24  1  0
 10 25  1  0
 11 26  1  0
 11 27  1  0
 12 28  1  0
 12 29  1  0
 14 30  1  0
 14 31  1  0
M  END
$$$$

     RDKit          3D

 31 32  0  0  0  0  0  0  0  0999 V2000
   -1.9654   -2.5585    0.2085 O   0  0  0  0  0  0  0  0  0  0  0  0
   -2.2227   -1.3441    0.0105 C   0  0  0  0  0  0  0  0  0  0  0  0
   -2.9569   -0.5643    0.9456 N   0  0  0  0  0  0  0  0  0  0  0  0
   -3.0984    0.7509    0.3738 C   0  0  0  0  0  0  0  0  0  0  0  0
   -3.0679    0.4799   -1.1130 C   0  0  0  0  0  0  0  0  0  0  0  0
   -1.8560   -0.4820   -1.1589 C   0  0  1  0  0  0  0  0  0  0  0  0
   -0.7183    0.3319   -0.9693 N   0  0  0  0  0  0  0  0  0  0  0  0
    0.5448   -0.3164   -0.7619 C   0  0  1  0  0  0  0  0  0  0  0  0
    1.5971    0.7342   -1.0544 C   0  0  0  0  0  0  0  0  0  0  0  0
    2.0854    1.4171    0.1111 N   0  0  0  0  0  0  0  0  0  0  0  0
    3.3780    0.7798    0.4315 C   0  0  0  0  0  0  0  0  0  0  0  0
    3.0057   -0.7064    0.5860 C   0  0  0  0  0  0  0  0  0  0  0  0
    1.8242   -0.7188    1.2771 O   0  0  0  0  0  0  0  0  0  0  0  0
    0.6894   -0.9838    0.5390 C   0  0  0  0  0  0  0  0  0  0  0  0
   -3.3498   -0.8172    1.8826 H   0  0  0  0  0  0  0  0  0  0  0  0
   -4.0239    1.2730    0.6874 H   0  0  0  0  0  0  0  0  0  0  0  0
   -2.1842    1.3198    0.6412 H   0  0  0  0  0  0  0  0  0  0  0  0
   -3.9913   -0.0205   -1.4665 H   0  0  0  0  0  0  0  0  0  0  0  0
   -2.8329    1.4151   -1.6270 H   0  0  0  0  0  0  0  0  0  0  0  0
   -1.8786   -1.0727   -2.1068 H   0  0  0  0  0  0  0  0  0  0  0  0
   -0.6197    0.9638   -1.7929 H   0  0  0  0  0  0  0  0  0  0  0  0
    0.6529   -1.0855   -1.5873 H   0  0  0  0  0  0  0  0  0  0  0  0
    2.4419    0.3004   -1.6403 H   0  0  0  0  0  0  0  0  0  0  0  0
    1.1904    1.5404   -1.7383 H   0  0  0  0  0  0  0  0  0  0  0  0
    2.1740    2.4376    0.0261 H   0  0  0  0  0  0  0  0  0  0  0  0
    3.8247    1.1778    1.3535 H   0  0  0  0  0  0  0  0  0  0  0  0
    4.0279    0.8886   -0.4564 H   0  0  0  0  0  0  0  0  0  0  0  0
    2.9903   -1.2045   -0.3964 H   0  0  0  0  0  0  0  0  0  0  0  0
    3.8113   -1.1317    1.2203 H   0  0  0  0  0  0  0  0  0  0  0  0
   -0.1775   -0.6995    1.2016 H   0  0  0  0  0  0  0  0  0  0  0  0
    0.7058   -2.1043    0.3835 H   0  0  0  0  0  0  0  0  0  0  0  0
  1  2  2  0
  2  3  1  0
  3  4  1  0
  4  5  1  0
  5  6  1  0
  6  7  1  0
  7  8  1  0
  8  9  1  0
  9 10  1  0
 10 11  1  0
 11 12  1  0
 12 13  1  0
 13 14  1  0
  6  2  1  0
 14  8  1  0
  3 15  1  0
  4 16  1  0
  4 17  1  0
  5 18  1  0
  5 19  1  0
  6 20  1  6
  7 21  1  0
  8 22  1  6
  9 23  1  0
  9 24  1  0
 10 25  1  0
 11 26  1  0
 11 27  1  0
 12 28  1  0
 12 29  1  0
 14 30  1  0
 14 31  1  0
M  END
$$$$

     RDKit          3D

 31 32  0  0  0  0  0  0  0  0999 V2000
   -1.6942   -0.7437    2.1377 O   0  0  0  0  0  0  0  0  0  0  0  0
   -2.2456   -0.5656    1.0284 C   0  0  0  0  0  0  0  0  0  0  0  0
   -3.5985   -0.9089    0.7397 N   0  0  0  0  0  0  0  0  0  0  0  0
   -3.9395   -0.5018   -0.6076 C   0  0  0  0  0  0  0  0  0  0  0  0
   -2.9416    0.6505   -0.8086 C   0  0  0  0  0  0  0  0  0  0  0  0
   -1.7033    0.0078   -0.2145 C   0  0  1  0  0  0  0  0  0  0  0  0
   -0.6091    0.8986   -0.0827 N   0  0  0  0  0  0  0  0  0  0  0  0
    0.5504    0.2265    0.4326 C   0  0  1  0  0  0  0  0  0  0  0  0
    0.9796   -0.8570   -0.5455 C   0  0  0  0  0  0  0  0  0  0  0  0
    2.3551   -1.2091   -0.4742 N   0  0  0  0  0  0  0  0  0  0  0  0
    3.2700   -0.1735   -0.8472 C   0  0  0  0  0  0  0  0  0  0  0  0
    3.7704    0.4781    0.4341 C   0  0  0  0  0  0  0  0  0  0  0  0
    2.6927    0.5177    1.3163 O   0  0  0  0  0  0  0  0  0  0  0  0
    1.6703    1.2211    0.7032 C   0  0  0  0  0  0  0  0  0  0  0  0
   -4.2324   -1.3952    1.4460 H   0  0  0  0  0  0  0  0  0  0  0  0
   -3.6738   -1.2643   -1.3685 H   0  0  0  0  0  0  0  0  0  0  0  0
   -4.9879   -0.1592   -0.6900 H   0  0  0  0  0  0  0  0  0  0  0  0
   -3.3285    1.4916   -0.2214 H   0  0  0  0  0  0  0  0  0  0  0  0
   -2.8117    0.8539   -1.8968 H   0  0  0  0  0  0  0  0  0  0  0  0
   -1.3939   -0.7957   -0.9338 H   0  0  0  0  0  0  0  0  0  0  0  0
   -0.8317    1.7820    0.4231 H   0  0  0  0  0  0  0  0  0  0  0  0
    0.3765   -0.2904    1.3881 H   0  0  0  0  0  0  0  0  0  0  0  0
    0.6479   -0.5608   -1.5615 H   0  0  0  0  0  0  0  0  0  0  0  0
    0.3981   -1.7934   -0.2922 H   0  0  0  0  0  0  0  0  0  0  0  0
    2.5043   -2.0508   -1.0773 H   0  0  0  0  0  0  0  0  0  0  0  0
    4.1370   -0.5430   -1.4378 H   0  0  0  0  0  0  0  0  0  0  0  0
    2.7484    0.5605   -1.4853 H   0  0  0  0  0  0  0  0  0  0  0  0
    4.5715   -0.1306    0.9041 H   0  0  0  0  0  0  0  0  0  0  0  0
    4.0943    1.5097    0.2055 H   0  0  0  0  0  0  0  0  0  0  0  0
    1.2733    1.9149    1.4746 H   0  0  0  0  0  0  0  0  0  0  0  0
    1.9519    1.8298   -0.1472 H   0  0  0  0  0  0  0  0  0  0  0  0
  1  2  2  0
  2  3  1  0
  3  4  1  0
  4  5  1  0
  5  6  1  0
  6  7  1  0
  7  8  1  0
  8  9  1  0
  9 10  1  0
 10 11  1  0
 11 12  1  0
 12 13  1  0
 13 14  1  0
  6  2  1  0
 14  8  1  0
  3 15  1  0
  4 16  1  0
  4 17  1  0
  5 18  1  0
  5 19  1  0
  6 20  1  6
  7 21  1  0
  8 22  1  1
  9 23  1  0
  9 24  1  0
 10 25  1  0
 11 26  1  0
 11 27  1  0
 12 28  1  0
 12 29  1  0
 14 30  1  0
 14 31  1  0
M  END
$$$$

     RDKit          3D

 31 32  0  0  0  0  0  0  0  0999 V2000
   -1.6572   -0.0847   -2.4022 O   0  0  0  0  0  0  0  0  0  0  0  0
   -2.0587   -0.1676   -1.2210 C   0  0  0  0  0  0  0  0  0  0  0  0
   -2.9511   -1.2000   -0.7574 N   0  0  0  0  0  0  0  0  0  0  0  0
   -3.4397   -0.8646    0.5539 C   0  0  0  0  0  0  0  0  0  0  0  0
   -3.0620    0.5660    0.7516 C   0  0  0  0  0  0  0  0  0  0  0  0
   -1.7788    0.6679   -0.0472 C   0  0  1  0  0  0  0  0  0  0  0  0
   -0.7019    0.1919    0.7626 N   0  0  0  0  0  0  0  0  0  0  0  0
    0.5912    0.2006    0.1314 C   0  0  1  0  0  0  0  0  0  0  0  0
    1.5823    0.6393    1.1928 C   0  0  0  0  0  0  0  0  0  0  0  0
    2.7454    1.2777    0.6373 N   0  0  0  0  0  0  0  0  0  0  0  0
    3.5363    0.2497   -0.0159 C   0  0  0  0  0  0  0  0  0  0  0  0
    2.7934   -0.1137   -1.2883 C   0  0  0  0  0  0  0  0  0  0  0  0
    2.0234   -1.2318   -1.1840 O   0  0  0  0  0  0  0  0  0  0  0  0
    0.9207   -1.1516   -0.3597 C   0  0  0  0  0  0  0  0  0  0  0  0
   -3.2164   -2.0566   -1.2628 H   0  0  0  0  0  0  0  0  0  0  0  0
   -4.5631   -0.9798    0.6340 H   0  0  0  0  0  0  0  0  0  0  0  0
   -2.9586   -1.4758    1.3514 H   0  0  0  0  0  0  0  0  0  0  0  0
   -2.8555    0.7623    1.8287 H   0  0  0  0  0  0  0  0  0  0  0  0
   -3.8349    1.2807    0.3828 H   0  0  0  0  0  0  0  0  0  0  0  0
   -1.6532    1.7338   -0.3673 H   0  0  0  0  0  0  0  0  0  0  0  0
   -0.6997    0.6228    1.6880 H   0  0  0  0  0  0  0  0  0  0  0  0
    0.5465    0.9789   -0.6551 H   0  0  0  0  0  0  0  0  0  0  0  0
    1.1054    1.3328    1.9193 H   0  0  0  0  0  0  0  0  0  0  0  0
    1.8776   -0.2596    1.7756 H   0  0  0  0  0  0  0  0  0  0  0  0
    2.4765    2.0072   -0.0488 H   0  0  0  0  0  0  0  0  0  0  0  0
    3.6808   -0.6292    0.6250 H   0  0  0  0  0  0  0  0  0  0  0  0
    4.5189    0.6535   -0.2698 H   0  0  0  0  0  0  0  0  0  0  0  0
    3.5856   -0.3316   -2.0663 H   0  0  0  0  0  0  0  0  0  0  0  0
    2.2896    0.7970   -1.6724 H   0  0  0  0  0  0  0  0  0  0  0  0
    1.0888   -1.8184    0.5140 H   0  0  0  0  0  0  0  0  0  0  0  0
    0.0685   -1.5968   -0.9101 H   0  0  0  0  0  0  0  0  0  0  0  0
  1  2  2  0
  2  3  1  0
  3  4  1  0
  4  5  1  0
  5  6  1  0
  6  7  1  0
  7  8  1  0
  8  9  1  0
  9 10  1  0
 10 11  1  0
 11 12  1  0
 12 13  1  0
 13 14  1  0
  6  2  1  0
 14  8  1  0
  3 15  1  0
  4 16  1  0
  4 17  1  0
  5 18  1  0
  5 19  1  0
  6 20  1  6
  7 21  1  0
  8 22  1  6
  9 23  1  0
  9 24  1  0
 10 25  1  0
 11 26  1  0
 11 27  1  0
 12 28  1  0
 12 29  1  0
 14 30  1  0
 14 31  1  0
M  END
$$$$

     RDKit          3D

 31 32  0  0  0  0  0  0  0  0999 V2000
   -2.0605    0.7960   -2.1205 O   0  0  0  0  0  0  0  0  0  0  0  0
   -2.4563    0.6210   -0.9419 C   0  0  0  0  0  0  0  0  0  0  0  0
   -3.8297    0.5376   -0.5962 N   0  0  0  0  0  0  0  0  0  0  0  0
   -3.9065   -0.4486    0.4847 C   0  0  0  0  0  0  0  0  0  0  0  0
   -2.6804   -0.1199    1.2768 C   0  0  0  0  0  0  0  0  0  0  0  0
   -1.6784    0.4692    0.3095 C   0  0  1  0  0  0  0  0  0  0  0  0
   -0.5587   -0.3813    0.2090 N   0  0  0  0  0  0  0  0  0  0  0  0
    0.5111   -0.0254   -0.6321 C   0  0  1  0  0  0  0  0  0  0  0  0
    1.1965    1.2123   -0.1323 C   0  0  0  0  0  0  0  0  0  0  0  0
    2.6231    1.1691   -0.2866 N   0  0  0  0  0  0  0  0  0  0  0  0
    3.3413    0.4214    0.6831 C   0  0  0  0  0  0  0  0  0  0  0  0
    3.2674   -1.0604    0.5631 C   0  0  0  0  0  0  0  0  0  0  0  0
    1.9564   -1.5435    0.4689 O   0  0  0  0  0  0  0  0  0  0  0  0
    1.5012   -1.1602   -0.7831 C   0  0  0  0  0  0  0  0  0  0  0  0
   -4.6643    1.0578   -1.0036 H   0  0  0  0  0  0  0  0  0  0  0  0
   -3.8794   -1.4494    0.0001 H   0  0  0  0  0  0  0  0  0  0  0  0
   -4.8424   -0.3456    1.0551 H   0  0  0  0  0  0  0  0  0  0  0  0
   -2.9308    0.6733    2.0072 H   0  0  0  0  0  0  0  0  0  0  0  0
   -2.2959   -1.0154    1.7852 H   0  0  0  0  0  0  0  0  0  0  0  0
   -1.3444    1.4786    0.5918 H   0  0  0  0  0  0  0  0  0  0  0  0
   -0.6306   -1.3140    0.5868 H   0  0  0  0  0  0  0  0  0  0  0  0
    0.1419    0.1569   -1.6861 H   0  0  0  0  0  0  0  0  0  0  0  0
    0.7896    2.0775   -0.6991 H   0  0  0  0  0  0  0  0  0  0  0  0
    1.0126    1.4139    0.9554 H   0  0  0  0  0  0  0  0  0  0  0  0
    2.9652    1.1149   -1.2492 H   0  0  0  0  0  0  0  0  0  0  0  0
    4.4307    0.6869    0.5501 H   0  0  0  0  0  0  0  0  0  0  0  0
    3.0671    0.7548    1.6948 H   0  0  0  0  0  0  0  0  0  0  0  0
    3.7804   -1.5119    1.4357 H   0  0  0  0  0  0  0  0  0  0  0  0
    3.7946   -1.4171   -0.3626 H   0  0  0  0  0  0  0  0  0  0  0  0
    1.0383   -2.0187   -1.3362 H   0  0  0  0  0  0  0  0  0  0  0  0
    2.3407   -0.8298   -1.4659 H   0  0  0  0  0  0  0  0  0  0  0  0
  1  2  2  0
  2  3  1  0
  3  4  1  0
  4  5  1  0
  5  6  1  0
  6  7  1  0
  7  8  1  0
  8  9  1  0
  9 10  1  0
 10 11  1  0
 11 12  1  0
 12 13  1  0
 13 14  1  0
  6  2  1  0
 14  8  1  0
  3 15  1  0
  4 16  1  0
  4 17  1  0
  5 18  1  0
  5 19  1  0
  6 20  1  1
  7 21  1  0
  8 22  1  6
  9 23  1  0
  9 24  1  0
 10 25  1  0
 11 26  1  0
 11 27  1  0
 12 28  1  0
 12 29  1  0
 14 30  1  0
 14 31  1  0
M  END
$$$$

     RDKit          3D

 31 32  0  0  0  0  0  0  0  0999 V2000
   -1.2509    1.4131    2.2500 O   0  0  0  0  0  0  0  0  0  0  0  0
   -1.9450    0.7002    1.4717 C   0  0  0  0  0  0  0  0  0  0  0  0
   -3.1510    1.1831    0.9061 N   0  0  0  0  0  0  0  0  0  0  0  0
   -3.8048    0.1140    0.1697 C   0  0  0  0  0  0  0  0  0  0  0  0
   -2.6331   -0.7752   -0.2279 C   0  0  0  0  0  0  0  0  0  0  0  0
   -1.7177   -0.6516    1.0026 C   0  0  1  0  0  0  0  0  0  0  0  0
   -0.4147   -1.0799    0.7273 N   0  0  0  0  0  0  0  0  0  0  0  0
    0.3584   -0.5398   -0.2883 C   0  0  1  0  0  0  0  0  0  0  0  0
    0.7511    0.8940   -0.2490 C   0  0  0  0  0  0  0  0  0  0  0  0
    1.7918    1.0747    0.7332 N   0  0  0  0  0  0  0  0  0  0  0  0
    3.1149    0.7904    0.2967 C   0  0  0  0  0  0  0  0  0  0  0  0
    3.2831    0.2433   -1.0666 C   0  0  0  0  0  0  0  0  0  0  0  0
    2.3629   -0.7055   -1.4496 O   0  0  0  0  0  0  0  0  0  0  0  0
    1.7018   -1.3064   -0.3994 C   0  0  0  0  0  0  0  0  0  0  0  0
   -3.5656    2.1483    0.9709 H   0  0  0  0  0  0  0  0  0  0  0  0
   -4.2963    0.5584   -0.7141 H   0  0  0  0  0  0  0  0  0  0  0  0
   -4.5146   -0.4149    0.8287 H   0  0  0  0  0  0  0  0  0  0  0  0
   -3.0081   -1.8110   -0.3358 H   0  0  0  0  0  0  0  0  0  0  0  0
   -2.1253   -0.3806   -1.1081 H   0  0  0  0  0  0  0  0  0  0  0  0
   -2.1715   -1.3479    1.7645 H   0  0  0  0  0  0  0  0  0  0  0  0
   -0.0167   -1.8282    1.3209 H   0  0  0  0  0  0  0  0  0  0  0  0
   -0.1448   -0.7773   -1.2793 H   0  0  0  0  0  0  0  0  0  0  0  0
    1.2222    1.1141   -1.2529 H   0  0  0  0  0  0  0  0  0  0  0  0
   -0.0336    1.6328   -0.1381 H   0  0  0  0  0  0  0  0  0  0  0  0
    1.5857    0.7132    1.6720 H   0  0  0  0  0  0  0  0  0  0  0  0
    3.6208    0.1461    1.0575 H   0  0  0  0  0  0  0  0  0  0  0  0
    3.6983    1.7592    0.3427 H   0  0  0  0  0  0  0  0  0  0  0  0
    4.2928   -0.2648   -1.0925 H   0  0  0  0  0  0  0  0  0  0  0  0
    3.3394    1.0250   -1.8456 H   0  0  0  0  0  0  0  0  0  0  0  0
    2.2260   -1.2658    0.5659 H   0  0  0  0  0  0  0  0  0  0  0  0
    1.4444   -2.3610   -0.6509 H   0  0  0  0  0  0  0  0  0  0  0  0
  1  2  2  0
  2  3  1  0
  3  4  1  0
  4  5  1  0
  5  6  1  0
  6  7  1  0
  7  8  1  0
  8  9  1  0
  9 10  1  0
 10 11  1  0
 11 12  1  0
 12 13  1  0
 13 14  1  0
  6  2  1  0
 14  8  1  0
  3 15  1  0
  4 16  1  0
  4 17  1  0
  5 18  1  0
  5 19  1  0
  6 20  1  1
  7 21  1  0
  8 22  1  6
  9 23  1  0
  9 24  1  0
 10 25  1  0
 11 26  1  0
 11 27  1  0
 12 28  1  0
 12 29  1  0
 14 30  1  0
 14 31  1  0
M  END
$$$$

     RDKit          3D

 31 32  0  0  0  0  0  0  0  0999 V2000
    2.8989    2.5392   -0.7728 O   0  0  0  0  0  0  0  0  0  0  0  0
    2.9181    1.3005   -0.5838 C   0  0  0  0  0  0  0  0  0  0  0  0
    4.0841    0.5805   -0.1741 N   0  0  0  0  0  0  0  0  0  0  0  0
    3.7132   -0.7278    0.3182 C   0  0  0  0  0  0  0  0  0  0  0  0
    2.1908   -0.6175    0.4618 C   0  0  0  0  0  0  0  0  0  0  0  0
    1.8512    0.2693   -0.7168 C   0  0  1  0  0  0  0  0  0  0  0  0
    0.5981    0.9220   -0.6014 N   0  0  0  0  0  0  0  0  0  0  0  0
   -0.4613    0.1718   -0.0114 C   0  0  1  0  0  0  0  0  0  0  0  0
   -1.6409    1.1396    0.1797 C   0  0  0  0  0  0  0  0  0  0  0  0
   -2.5303    0.7249    1.2218 N   0  0  0  0  0  0  0  0  0  0  0  0
   -3.6664    0.0274    0.6223 C   0  0  0  0  0  0  0  0  0  0  0  0
   -3.1335   -1.2103   -0.0534 C   0  0  0  0  0  0  0  0  0  0  0  0
   -2.3491   -0.8336   -1.1471 O   0  0  0  0  0  0  0  0  0  0  0  0
   -0.9892   -0.9530   -0.8619 C   0  0  0  0  0  0  0  0  0  0  0  0
    5.0537    0.9927   -0.2402 H   0  0  0  0  0  0  0  0  0  0  0  0
    4.1865   -0.9344    1.2840 H   0  0  0  0  0  0  0  0  0  0  0  0
    3.9790   -1.4627   -0.4774 H   0  0  0  0  0  0  0  0  0  0  0  0
    1.9455   -0.1466    1.4154 H   0  0  0  0  0  0  0  0  0  0  0  0
    1.7960   -1.6478    0.3270 H   0  0  0  0  0  0  0  0  0  0  0  0
    2.0106   -0.2903   -1.6318 H   0  0  0  0  0  0  0  0  0  0  0  0
    0.3611    1.3456   -1.5203 H   0  0  0  0  0  0  0  0  0  0  0  0
   -0.1193   -0.2300    0.9571 H   0  0  0  0  0  0  0  0  0  0  0  0
   -1.2058    2.1397    0.4316 H   0  0  0  0  0  0  0  0  0  0  0  0
   -2.2161    1.2185   -0.7682 H   0  0  0  0  0  0  0  0  0  0  0  0
   -2.9361    1.6105    1.6519 H   0  0  0  0  0  0  0  0  0  0  0  0
   -4.4589   -0.2095    1.3461 H   0  0  0  0  0  0  0  0  0  0  0  0
   -4.0352    0.7150   -0.1852 H   0  0  0  0  0  0  0  0  0  0  0  0
   -2.5229   -1.7626    0.6948 H   0  0  0  0  0  0  0  0  0  0  0  0
   -4.0149   -1.8109   -0.3925 H   0  0  0  0  0  0  0  0  0  0  0  0
   -0.8312   -1.9544   -0.4119 H   0  0  0  0  0  0  0  0  0  0  0  0
   -0.4759   -0.9057   -1.8472 H   0  0  0  0  0  0  0  0  0  0  0  0
  1  2  2  0
  2  3  1  0
  3  4  1  0
  4  5  1  0
  5  6  1  0
  6  7  1  0
  7  8  1  0
  8  9  1  0
  9 10  1  0
 10 11  1  0
 11 12  1  0
 12 13  1  0
 13 14  1  0
  6  2  1  0
 14  8  1  0
  3 15  1  0
  4 16  1  0
  4 17  1  0
  5 18  1  0
  5 19  1  0
  6 20  1  6
  7 21  1  0
  8 22  1  1
  9 23  1  0
  9 24  1  0
 10 25  1  0
 11 26  1  0
 11 27  1  0
 12 28  1  0
 12 29  1  0
 14 30  1  0
 14 31  1  0
M  END
$$$$
