
     RDKit          3D

 28 28  0  0  0  0  0  0  0  0999 V2000
    3.0867    1.4460   -0.5382 C   0  0  0  0  0  0  0  0  0  0  0  0
    2.0190    0.3607   -0.5766 C   0  0  2  0  0  0  0  0  0  0  0  0
    0.7944    0.8243   -0.0192 N   0  0  0  0  0  0  0  0  0  0  0  0
    0.0083   -0.1440    0.6771 C   0  0  1  0  0  0  0  0  0  0  0  0
   -1.4469    0.2463    0.5376 C   0  0  2  0  0  0  0  0  0  0  0  0
   -2.3479   -0.7375    1.2531 C   0  0  0  0  0  0  0  0  0  0  0  0
   -1.8541    0.3763   -0.9161 C   0  0  0  0  0  0  0  0  0  0  0  0
   -3.2608    0.7517   -0.9207 N   0  0  0  0  0  0  0  0  0  0  0  0
    0.2611   -1.5398    0.3066 C   0  0  0  0  0  0  0  0  0  0  0  0
   -0.6347   -2.3828    0.0474 O   0  0  0  0  0  0  0  0  0  0  0  0
    1.6390   -1.9377    0.2451 N   0  0  0  0  0  0  0  0  0  0  0  0
    2.5603   -0.8691    0.0505 C   0  0  0  0  0  0  0  0  0  0  0  0
    3.7561   -1.0114    0.4083 O   0  0  0  0  0  0  0  0  0  0  0  0
    4.0590    0.9829   -0.3185 H   0  0  0  0  0  0  0  0  0  0  0  0
    2.8399    2.1505    0.3030 H   0  0  0  0  0  0  0  0  0  0  0  0
    3.1527    1.9979   -1.4955 H   0  0  0  0  0  0  0  0  0  0  0  0
    1.8474    0.1365   -1.6691 H   0  0  0  0  0  0  0  0  0  0  0  0
    0.8391    1.7064    0.5004 H   0  0  0  0  0  0  0  0  0  0  0  0
    0.2350   -0.0595    1.7809 H   0  0  0  0  0  0  0  0  0  0  0  0
   -1.5583    1.2272    1.0508 H   0  0  0  0  0  0  0  0  0  0  0  0
   -3.1907   -0.1759    1.7214 H   0  0  0  0  0  0  0  0  0  0  0  0
   -2.7467   -1.5218    0.5590 H   0  0  0  0  0  0  0  0  0  0  0  0
   -1.7726   -1.1991    2.0994 H   0  0  0  0  0  0  0  0  0  0  0  0
   -1.2538    1.1723   -1.3900 H   0  0  0  0  0  0  0  0  0  0  0  0
   -1.7274   -0.6127   -1.3979 H   0  0  0  0  0  0  0  0  0  0  0  0
   -3.3692    1.7046   -1.2913 H   0  0  0  0  0  0  0  0  0  0  0  0
   -3.8700    0.0386   -1.3440 H   0  0  0  0  0  0  0  0  0  0  0  0
    1.9354   -2.9311    0.3363 H   0  0  0  0  0  0  0  0  0  0  0  0
  1  2  1  0
  2  3  1  0
  3  4  1  0
  4  5  1  0
  5  6  1  0
  5  7  1  0
  7  8  1  0
  4  9  1  0
  9 10  2  0
  9 11  1  0
 11 12  1  0
 12 13  2  0
 12  2  1  0
  1 14  1  0
  1 15  1  0
  1 16  1  0
  2 17  1  6
  3 18  1  0
  4 19  1  1
  5 20  1  1
  6 21  1  0
  6 22  1  0
  6 23  1  0
  7 24  1  0
  7 25  1  0
  8 26  1  0
  8 27  1  0
 11 28  1  0
M  END
$$$$

     RDKit          3D

 28 28  0  0  0  0  0  0  0  0999 V2000
    2.7155    0.9578   -0.5271 C   0  0  0  0  0  0  0  0  0  0  0  0
    1.9992   -0.3057   -0.8797 C   0  0  2  0  0  0  0  0  0  0  0  0
    0.5733   -0.1999   -0.8743 N   0  0  0  0  0  0  0  0  0  0  0  0
    0.0462   -0.1921    0.4896 C   0  0  1  0  0  0  0  0  0  0  0  0
   -1.4102    0.1826    0.5015 C   0  0  2  0  0  0  0  0  0  0  0  0
   -2.2738   -0.7466   -0.2809 C   0  0  0  0  0  0  0  0  0  0  0  0
   -1.6386    1.5904   -0.0007 C   0  0  0  0  0  0  0  0  0  0  0  0
   -3.0502    1.8920    0.0337 N   0  0  0  0  0  0  0  0  0  0  0  0
    0.3146   -1.5067    1.0804 C   0  0  0  0  0  0  0  0  0  0  0  0
   -0.4883   -2.1862    1.7507 O   0  0  0  0  0  0  0  0  0  0  0  0
    1.6159   -2.0662    0.8717 N   0  0  0  0  0  0  0  0  0  0  0  0
    2.4959   -1.4255   -0.0401 C   0  0  0  0  0  0  0  0  0  0  0  0
    3.6947   -1.7903   -0.1507 O   0  0  0  0  0  0  0  0  0  0  0  0
    3.5755    0.7804    0.1572 H   0  0  0  0  0  0  0  0  0  0  0  0
    3.1584    1.4642   -1.4300 H   0  0  0  0  0  0  0  0  0  0  0  0
    2.0442    1.7195   -0.0569 H   0  0  0  0  0  0  0  0  0  0  0  0
    2.2999   -0.5674   -1.9364 H   0  0  0  0  0  0  0  0  0  0  0  0
    0.1921   -1.0337   -1.4060 H   0  0  0  0  0  0  0  0  0  0  0  0
    0.6529    0.5551    1.0393 H   0  0  0  0  0  0  0  0  0  0  0  0
   -1.7436    0.1334    1.5664 H   0  0  0  0  0  0  0  0  0  0  0  0
   -1.8499   -0.9938   -1.2611 H   0  0  0  0  0  0  0  0  0  0  0  0
   -2.5674   -1.6634    0.3095 H   0  0  0  0  0  0  0  0  0  0  0  0
   -3.2573   -0.2163   -0.4486 H   0  0  0  0  0  0  0  0  0  0  0  0
   -1.0384    2.3205    0.5810 H   0  0  0  0  0  0  0  0  0  0  0  0
   -1.3120    1.6977   -1.0550 H   0  0  0  0  0  0  0  0  0  0  0  0
   -3.2905    2.7840   -0.4124 H   0  0  0  0  0  0  0  0  0  0  0  0
   -3.3896    1.7590    0.9974 H   0  0  0  0  0  0  0  0  0  0  0  0
    1.9313   -2.9426    1.3814 H   0  0  0  0  0  0  0  0  0  0  0  0
  1  2  1  0
  2  3  1  0
  3  4  1  0
  4  5  1  0
  5  6  1  0
  5  7  1  0
  7  8  1  0
  4  9  1  0
  9 10  2  0
  9 11  1  0
 11 12  1  0
 12 13  2  0
 12  2  1  0
  1 14  1  0
  1 15  1  0
  1 16  1  0
  2 17  1  6
  3 18  1  0
  4 19  1  1
  5 20  1  1
  6 21  1  0
  6 22  1  0
  6 23  1  0
  7 24  1  0
  7 25  1  0
  8 26  1  0
  8 27  1  0
 11 28  1  0
M  END
$$$$

     RDKit          3D

 28 28  0  0  0  0  0  0  0  0999 V2000
    3.0757    0.2198   -1.1300 C   0  0  0  0  0  0  0  0  0  0  0  0
    2.0023   -0.3561   -0.2252 C   0  0  2  0  0  0  0  0  0  0  0  0
    0.6839    0.0128   -0.6124 N   0  0  0  0  0  0  0  0  0  0  0  0
   -0.2765    0.1555    0.4265 C   0  0  1  0  0  0  0  0  0  0  0  0
   -1.6728   -0.2504    0.0212 C   0  0  2  0  0  0  0  0  0  0  0  0
   -1.7518   -1.6884   -0.4086 C   0  0  0  0  0  0  0  0  0  0  0  0
   -2.2556    0.7005   -1.0003 C   0  0  0  0  0  0  0  0  0  0  0  0
   -2.2857    2.0240   -0.3757 N   0  0  0  0  0  0  0  0  0  0  0  0
    0.0690   -0.5109    1.6992 C   0  0  0  0  0  0  0  0  0  0  0  0
   -0.7352   -1.2176    2.3570 O   0  0  0  0  0  0  0  0  0  0  0  0
    1.4010   -0.3156    2.1735 N   0  0  0  0  0  0  0  0  0  0  0  0
    2.3602    0.0136    1.1689 C   0  0  0  0  0  0  0  0  0  0  0  0
    3.4283    0.5818    1.4965 O   0  0  0  0  0  0  0  0  0  0  0  0
    3.1505    1.3212   -1.0499 H   0  0  0  0  0  0  0  0  0  0  0  0
    4.0453   -0.1897   -0.7534 H   0  0  0  0  0  0  0  0  0  0  0  0
    2.9841   -0.1384   -2.1762 H   0  0  0  0  0  0  0  0  0  0  0  0
    2.0829   -1.4761   -0.3482 H   0  0  0  0  0  0  0  0  0  0  0  0
    0.7058    0.8984   -1.2010 H   0  0  0  0  0  0  0  0  0  0  0  0
   -0.3412    1.2582    0.6665 H   0  0  0  0  0  0  0  0  0  0  0  0
   -2.3162   -0.1570    0.9366 H   0  0  0  0  0  0  0  0  0  0  0  0
   -1.2265   -1.8840   -1.3632 H   0  0  0  0  0  0  0  0  0  0  0  0
   -1.4382   -2.3227    0.4210 H   0  0  0  0  0  0  0  0  0  0  0  0
   -2.8304   -1.9098   -0.5940 H   0  0  0  0  0  0  0  0  0  0  0  0
   -1.6619    0.7451   -1.9296 H   0  0  0  0  0  0  0  0  0  0  0  0
   -3.3039    0.4058   -1.1868 H   0  0  0  0  0  0  0  0  0  0  0  0
   -2.5366    1.8443    0.6378 H   0  0  0  0  0  0  0  0  0  0  0  0
   -3.0003    2.6446   -0.8308 H   0  0  0  0  0  0  0  0  0  0  0  0
    1.6437   -0.4089    3.1808 H   0  0  0  0  0  0  0  0  0  0  0  0
  1  2  1  0
  2  3  1  0
  3  4  1  0
  4  5  1  0
  5  6  1  0
  5  7  1  0
  7  8  1  0
  4  9  1  0
  9 10  2  0
  9 11  1  0
 11 12  1  0
 12 13  2  0
 12  2  1  0
  1 14  1  0
  1 15  1  0
  1 16  1  0
  2 17  1  1
  3 18  1  0
  4 19  1  1
  5 20  1  1
  6 21  1  0
  6 22  1  0
  6 23  1  0
  7 24  1  0
  7 25  1  0
  8 26  1  0
  8 27  1  0
 11 28  1  0
M  END
$$$$

     RDKit          3D

 28 28  0  0  0  0  0  0  0  0999 V2000
   -2.9958    0.9218    0.6222 C   0  0  0  0  0  0  0  0  0  0  0  0
   -1.9105   -0.1538    0.4768 C   0  0  2  0  0  0  0  0  0  0  0  0
   -0.6808    0.4711    0.2968 N   0  0  0  0  0  0  0  0  0  0  0  0
    0.2594   -0.0262   -0.6053 C   0  0  1  0  0  0  0  0  0  0  0  0
    1.6449   -0.2395   -0.0060 C   0  0  2  0  0  0  0  0  0  0  0  0
    1.6084   -1.2236    1.1397 C   0  0  0  0  0  0  0  0  0  0  0  0
    2.2768    1.0711    0.3986 C   0  0  0  0  0  0  0  0  0  0  0  0
    2.3995    1.9137   -0.7686 N   0  0  0  0  0  0  0  0  0  0  0  0
   -0.0878   -1.2814   -1.3002 C   0  0  0  0  0  0  0  0  0  0  0  0
    0.8362   -1.8755   -1.9150 O   0  0  0  0  0  0  0  0  0  0  0  0
   -1.4027   -1.8166   -1.2898 N   0  0  0  0  0  0  0  0  0  0  0  0
   -2.3633   -1.0927   -0.5386 C   0  0  0  0  0  0  0  0  0  0  0  0
   -3.5909   -1.2583   -0.7456 O   0  0  0  0  0  0  0  0  0  0  0  0
   -3.5432    0.8400    1.5595 H   0  0  0  0  0  0  0  0  0  0  0  0
   -3.7110    0.8782   -0.2364 H   0  0  0  0  0  0  0  0  0  0  0  0
   -2.5389    1.9466    0.5876 H   0  0  0  0  0  0  0  0  0  0  0  0
   -1.9051   -0.7046    1.4630 H   0  0  0  0  0  0  0  0  0  0  0  0
   -0.6964    1.4921    0.3830 H   0  0  0  0  0  0  0  0  0  0  0  0
    0.4192    0.7419   -1.4205 H   0  0  0  0  0  0  0  0  0  0  0  0
    2.2688   -0.6978   -0.8076 H   0  0  0  0  0  0  0  0  0  0  0  0
    1.1214   -0.7773    2.0424 H   0  0  0  0  0  0  0  0  0  0  0  0
    1.0461   -2.1139    0.7757 H   0  0  0  0  0  0  0  0  0  0  0  0
    2.6551   -1.4995    1.3604 H   0  0  0  0  0  0  0  0  0  0  0  0
    3.2963    0.8477    0.7728 H   0  0  0  0  0  0  0  0  0  0  0  0
    1.6824    1.5617    1.1872 H   0  0  0  0  0  0  0  0  0  0  0  0
    2.1878    2.9080   -0.4705 H   0  0  0  0  0  0  0  0  0  0  0  0
    3.3688    1.8528   -1.1593 H   0  0  0  0  0  0  0  0  0  0  0  0
   -1.6446   -2.6862   -1.8023 H   0  0  0  0  0  0  0  0  0  0  0  0
  1  2  1  0
  2  3  1  0
  3  4  1  0
  4  5  1  0
  5  6  1  0
  5  7  1  0
  7  8  1  0
  4  9  1  0
  9 10  2  0
  9 11  1  0
 11 12  1  0
 12 13  2  0
 12  2  1  0
  1 14  1  0
  1 15  1  0
  1 16  1  0
  2 17  1  1
  3 18  1  0
  4 19  1  6
  5 20  1  6
  6 21  1  0
  6 22  1  0
  6 23  1  0
  7 24  1  0
  7 25  1  0
  8 26  1  0
  8 27  1  0
 11 28  1  0
M  END
$$$$

     RDKit          3D

 28 28  0  0  0  0  0  0  0  0999 V2000
   -2.8995    1.2372   -0.2730 C   0  0  0  0  0  0  0  0  0  0  0  0
   -1.8560    0.7964    0.7347 C   0  0  2  0  0  0  0  0  0  0  0  0
   -0.5183    1.0377    0.3135 N   0  0  0  0  0  0  0  0  0  0  0  0
    0.0203    0.0786   -0.6003 C   0  0  1  0  0  0  0  0  0  0  0  0
    1.4992    0.3418   -0.7255 C   0  0  2  0  0  0  0  0  0  0  0  0
    2.2056   -0.5821   -1.6491 C   0  0  0  0  0  0  0  0  0  0  0  0
    2.1828    0.3947    0.6236 C   0  0  0  0  0  0  0  0  0  0  0  0
    2.0391   -0.8452    1.3523 N   0  0  0  0  0  0  0  0  0  0  0  0
   -0.3061   -1.3091   -0.2796 C   0  0  0  0  0  0  0  0  0  0  0  0
    0.4528   -2.2333   -0.6359 O   0  0  0  0  0  0  0  0  0  0  0  0
   -1.4781   -1.6411    0.4357 N   0  0  0  0  0  0  0  0  0  0  0  0
   -2.1508   -0.5878    1.1135 C   0  0  0  0  0  0  0  0  0  0  0  0
   -2.9727   -0.8330    2.0096 O   0  0  0  0  0  0  0  0  0  0  0  0
   -2.8190    2.3153   -0.5082 H   0  0  0  0  0  0  0  0  0  0  0  0
   -3.8962    1.1232    0.2443 H   0  0  0  0  0  0  0  0  0  0  0  0
   -2.9099    0.5835   -1.1576 H   0  0  0  0  0  0  0  0  0  0  0  0
   -2.0355    1.4371    1.6472 H   0  0  0  0  0  0  0  0  0  0  0  0
   -0.5086    1.9753   -0.1859 H   0  0  0  0  0  0  0  0  0  0  0  0
   -0.4236    0.2938   -1.6161 H   0  0  0  0  0  0  0  0  0  0  0  0
    1.5915    1.3819   -1.1509 H   0  0  0  0  0  0  0  0  0  0  0  0
    1.5472   -0.8766   -2.5068 H   0  0  0  0  0  0  0  0  0  0  0  0
    3.0561   -0.0368   -2.1099 H   0  0  0  0  0  0  0  0  0  0  0  0
    2.6455   -1.4699   -1.1530 H   0  0  0  0  0  0  0  0  0  0  0  0
    3.2587    0.5782    0.4375 H   0  0  0  0  0  0  0  0  0  0  0  0
    1.8207    1.2745    1.2039 H   0  0  0  0  0  0  0  0  0  0  0  0
    2.9380   -1.1336    1.8090 H   0  0  0  0  0  0  0  0  0  0  0  0
    1.3674   -0.6600    2.1563 H   0  0  0  0  0  0  0  0  0  0  0  0
   -1.8506   -2.6407    0.4709 H   0  0  0  0  0  0  0  0  0  0  0  0
  1  2  1  0
  2  3  1  0
  3  4  1  0
  4  5  1  0
  5  6  1  0
  5  7  1  0
  7  8  1  0
  4  9  1  0
  9 10  2  0
  9 11  1  0
 11 12  1  0
 12 13  2  0
 12  2  1  0
  1 14  1  0
  1 15  1  0
  1 16  1  0
  2 17  1  1
  3 18  1  0
  4 19  1  6
  5 20  1  6
  6 21  1  0
  6 22  1  0
  6 23  1  0
  7 24  1  0
  7 25  1  0
  8 26  1  0
  8 27  1  0
 11 28  1  0
M  END
$$$$

     RDKit          3D

 28 28  0  0  0  0  0  0  0  0999 V2000
   -3.0068   -0.4127   -1.2164 C   0  0  0  0  0  0  0  0  0  0  0  0
   -2.2835    0.6598   -0.4390 C   0  0  2  0  0  0  0  0  0  0  0  0
   -0.8999    0.7675   -0.7385 N   0  0  0  0  0  0  0  0  0  0  0  0
   -0.0721   -0.0186    0.1074 C   0  0  1  0  0  0  0  0  0  0  0  0
    1.3387   -0.1709   -0.3638 C   0  0  2  0  0  0  0  0  0  0  0  0
    2.1704   -1.0164    0.5763 C   0  0  0  0  0  0  0  0  0  0  0  0
    2.0546    1.1410   -0.5404 C   0  0  0  0  0  0  0  0  0  0  0  0
    3.4094    0.8185   -1.0009 N   0  0  0  0  0  0  0  0  0  0  0  0
   -0.1782    0.5250    1.4788 C   0  0  0  0  0  0  0  0  0  0  0  0
    0.7725    0.7701    2.2519 O   0  0  0  0  0  0  0  0  0  0  0  0
   -1.5041    0.7788    1.9215 N   0  0  0  0  0  0  0  0  0  0  0  0
   -2.5622    0.5038    1.0083 C   0  0  0  0  0  0  0  0  0  0  0  0
   -3.6814    0.1431    1.4538 O   0  0  0  0  0  0  0  0  0  0  0  0
   -3.3152   -0.0073   -2.2219 H   0  0  0  0  0  0  0  0  0  0  0  0
   -2.4525   -1.3503   -1.3038 H   0  0  0  0  0  0  0  0  0  0  0  0
   -3.9681   -0.6076   -0.6878 H   0  0  0  0  0  0  0  0  0  0  0  0
   -2.7691    1.6335   -0.7383 H   0  0  0  0  0  0  0  0  0  0  0  0
   -0.5518    1.7052   -0.9627 H   0  0  0  0  0  0  0  0  0  0  0  0
   -0.5127   -1.0502    0.1474 H   0  0  0  0  0  0  0  0  0  0  0  0
    1.3612   -0.6862   -1.3465 H   0  0  0  0  0  0  0  0  0  0  0  0
    2.6755   -0.3664    1.3191 H   0  0  0  0  0  0  0  0  0  0  0  0
    2.9660   -1.5280    0.0115 H   0  0  0  0  0  0  0  0  0  0  0  0
    1.5471   -1.8059    1.0399 H   0  0  0  0  0  0  0  0  0  0  0  0
    2.1811    1.6847    0.4107 H   0  0  0  0  0  0  0  0  0  0  0  0
    1.6114    1.7661   -1.3409 H   0  0  0  0  0  0  0  0  0  0  0  0
    3.3655   -0.0883   -1.5478 H   0  0  0  0  0  0  0  0  0  0  0  0
    3.9939    0.6147   -0.1638 H   0  0  0  0  0  0  0  0  0  0  0  0
   -1.6897    1.1540    2.8856 H   0  0  0  0  0  0  0  0  0  0  0  0
  1  2  1  0
  2  3  1  0
  3  4  1  0
  4  5  1  0
  5  6  1  0
  5  7  1  0
  7  8  1  0
  4  9  1  0
  9 10  2  0
  9 11  1  0
 11 12  1  0
 12 13  2  0
 12  2  1  0
  1 14  1  0
  1 15  1  0
  1 16  1  0
  2 17  1  6
  3 18  1  0
  4 19  1  1
  5 20  1  6
  6 21  1  0
  6 22  1  0
  6 23  1  0
  7 24  1  0
  7 25  1  0
  8 26  1  0
  8 27  1  0
 11 28  1  0
M  END
$$$$

     RDKit          3D

 28 28  0  0  0  0  0  0  0  0999 V2000
   -2.7573   -1.4512   -1.1913 C   0  0  0  0  0  0  0  0  0  0  0  0
   -1.7239   -0.4162   -0.8101 C   0  0  2  0  0  0  0  0  0  0  0  0
   -0.9457   -0.9258    0.2931 N   0  0  0  0  0  0  0  0  0  0  0  0
    0.0917    0.0131    0.6948 C   0  0  1  0  0  0  0  0  0  0  0  0
    1.2422    0.0244   -0.2605 C   0  0  2  0  0  0  0  0  0  0  0  0
    1.9065   -1.3288   -0.3756 C   0  0  0  0  0  0  0  0  0  0  0  0
    2.2991    1.0176    0.1691 C   0  0  0  0  0  0  0  0  0  0  0  0
    2.7686    0.6589    1.4531 N   0  0  0  0  0  0  0  0  0  0  0  0
   -0.4552    1.3629    0.9201 C   0  0  0  0  0  0  0  0  0  0  0  0
    0.1055    2.1221    1.7433 O   0  0  0  0  0  0  0  0  0  0  0  0
   -1.6163    1.8377    0.2232 N   0  0  0  0  0  0  0  0  0  0  0  0
   -2.4136    0.8250   -0.3815 C   0  0  0  0  0  0  0  0  0  0  0  0
   -3.6712    0.9892   -0.5435 O   0  0  0  0  0  0  0  0  0  0  0  0
   -3.5437   -1.4924   -0.4130 H   0  0  0  0  0  0  0  0  0  0  0  0
   -3.1927   -1.1193   -2.1612 H   0  0  0  0  0  0  0  0  0  0  0  0
   -2.2971   -2.4406   -1.3219 H   0  0  0  0  0  0  0  0  0  0  0  0
   -1.0372   -0.2417   -1.6571 H   0  0  0  0  0  0  0  0  0  0  0  0
   -1.6117   -1.0147    1.1159 H   0  0  0  0  0  0  0  0  0  0  0  0
    0.4746   -0.3570    1.6726 H   0  0  0  0  0  0  0  0  0  0  0  0
    0.9005    0.2787   -1.3067 H   0  0  0  0  0  0  0  0  0  0  0  0
    1.6065   -2.0144    0.4424 H   0  0  0  0  0  0  0  0  0  0  0  0
    3.0097   -1.2201   -0.4163 H   0  0  0  0  0  0  0  0  0  0  0  0
    1.6260   -1.8550   -1.3299 H   0  0  0  0  0  0  0  0  0  0  0  0
    1.8395    2.0249    0.2126 H   0  0  0  0  0  0  0  0  0  0  0  0
    3.1544    1.0119   -0.5430 H   0  0  0  0  0  0  0  0  0  0  0  0
    3.6114    1.1192    1.7964 H   0  0  0  0  0  0  0  0  0  0  0  0
    2.5132   -0.2390    1.8274 H   0  0  0  0  0  0  0  0  0  0  0  0
   -1.8837    2.8306    0.1474 H   0  0  0  0  0  0  0  0  0  0  0  0
  1  2  1  0
  2  3  1  0
  3  4  1  0
  4  5  1  0
  5  6  1  0
  5  7  1  0
  7  8  1  0
  4  9  1  0
  9 10  2  0
  9 11  1  0
 11 12  1  0
 12 13  2  0
 12  2  1  0
  1 14  1  0
  1 15  1  0
  1 16  1  0
  2 17  1  6
  3 18  1  0
  4 19  1  1
  5 20  1  6
  6 21  1  0
  6 22  1  0
  6 23  1  0
  7 24  1  0
  7 25  1  0
  8 26  1  0
  8 27  1  0
 11 28  1  0
M  END
$$$$

     RDKit          3D

 28 28  0  0  0  0  0  0  0  0999 V2000
   -2.7823    1.6837   -0.1822 C   0  0  0  0  0  0  0  0  0  0  0  0
   -1.4497    1.0021    0.1887 C   0  0  2  0  0  0  0  0  0  0  0  0
   -0.9481    0.4103   -0.9712 N   0  0  0  0  0  0  0  0  0  0  0  0
   -0.0968   -0.7297   -0.8680 C   0  0  1  0  0  0  0  0  0  0  0  0
    1.3620   -0.3808   -0.9727 C   0  0  2  0  0  0  0  0  0  0  0  0
    2.2731   -1.5521   -0.8678 C   0  0  0  0  0  0  0  0  0  0  0  0
    1.7764    0.7574   -0.0785 C   0  0  0  0  0  0  0  0  0  0  0  0
    1.5682    0.5358    1.3040 N   0  0  0  0  0  0  0  0  0  0  0  0
   -0.4261   -1.6305    0.2574 C   0  0  0  0  0  0  0  0  0  0  0  0
   -0.2259   -2.8734    0.2715 O   0  0  0  0  0  0  0  0  0  0  0  0
   -1.0207   -1.0882    1.4430 N   0  0  0  0  0  0  0  0  0  0  0  0
   -1.7382    0.1544    1.3417 C   0  0  0  0  0  0  0  0  0  0  0  0
   -2.5861    0.5090    2.2088 O   0  0  0  0  0  0  0  0  0  0  0  0
   -3.1244    2.2427    0.7159 H   0  0  0  0  0  0  0  0  0  0  0  0
   -2.5523    2.4094   -0.9816 H   0  0  0  0  0  0  0  0  0  0  0  0
   -3.5265    0.9183   -0.4867 H   0  0  0  0  0  0  0  0  0  0  0  0
   -0.8324    1.8647    0.5845 H   0  0  0  0  0  0  0  0  0  0  0  0
   -1.6035    0.4046   -1.7692 H   0  0  0  0  0  0  0  0  0  0  0  0
   -0.3191   -1.3452   -1.7966 H   0  0  0  0  0  0  0  0  0  0  0  0
    1.5071    0.0414   -2.0154 H   0  0  0  0  0  0  0  0  0  0  0  0
    2.4152   -2.0775   -1.8592 H   0  0  0  0  0  0  0  0  0  0  0  0
    1.9945   -2.3244   -0.1562 H   0  0  0  0  0  0  0  0  0  0  0  0
    3.3248   -1.2510   -0.5831 H   0  0  0  0  0  0  0  0  0  0  0  0
    2.8906    0.8684   -0.2340 H   0  0  0  0  0  0  0  0  0  0  0  0
    1.3364    1.6898   -0.4144 H   0  0  0  0  0  0  0  0  0  0  0  0
    1.5679    1.4721    1.7856 H   0  0  0  0  0  0  0  0  0  0  0  0
    2.1674   -0.1500    1.7648 H   0  0  0  0  0  0  0  0  0  0  0  0
   -0.9515   -1.5611    2.3708 H   0  0  0  0  0  0  0  0  0  0  0  0
  1  2  1  0
  2  3  1  0
  3  4  1  0
  4  5  1  0
  5  6  1  0
  5  7  1  0
  7  8  1  0
  4  9  1  0
  9 10  2  0
  9 11  1  0
 11 12  1  0
 12 13  2  0
 12  2  1  0
  1 14  1  0
  1 15  1  0
  1 16  1  0
  2 17  1  1
  3 18  1  0
  4 19  1  6
  5 20  1  6
  6 21  1  0
  6 22  1  0
  6 23  1  0
  7 24  1  0
  7 25  1  0
  8 26  1  0
  8 27  1  0
 11 28  1  0
M  END
$$$$
