
     RDKit          3D

 26 27  0  0  0  0  0  0  0  0999 V2000
    3.6299    2.0476   -0.1730 N   0  0  0  0  0  0  0  0  0  0  0  0
    3.0757    1.4992    0.9718 N   0  0  0  0  0  0  0  0  0  0  0  0
    2.3121    0.3220    0.8889 C   0  0  0  0  0  0  0  0  0  0  0  0
    2.9618   -0.8479    1.0178 N   0  0  0  0  0  0  0  0  0  0  0  0
    2.2698   -1.9963    0.9448 C   0  0  0  0  0  0  0  0  0  0  0  0
    0.9290   -1.9759    0.7431 N   0  0  0  0  0  0  0  0  0  0  0  0
    0.2511   -0.8209    0.6104 C   0  0  0  0  0  0  0  0  0  0  0  0
   -1.1610   -0.7912    0.3978 N   0  0  0  0  0  0  0  0  0  0  0  0
   -2.1477   -1.8532    0.2780 C   0  0  0  0  0  0  0  0  0  0  0  0
   -2.9215   -0.9102   -0.6505 C   0  0  0  0  0  0  0  0  0  0  0  0
   -2.2242    0.1453    0.2135 C   0  0  2  0  0  0  0  0  0  0  0  0
   -1.9122    1.3640   -0.6083 C   0  0  0  0  0  0  0  0  0  0  0  0
   -1.5180    1.0805   -1.8920 O   0  0  0  0  0  0  0  0  0  0  0  0
    0.9813    0.3047    0.6897 N   0  0  0  0  0  0  0  0  0  0  0  0
    4.5635    2.4938   -0.0169 H   0  0  0  0  0  0  0  0  0  0  0  0
    3.7107    1.4038   -0.9683 H   0  0  0  0  0  0  0  0  0  0  0  0
    3.2235    1.9554    1.8866 H   0  0  0  0  0  0  0  0  0  0  0  0
    2.8215   -2.9168    1.0523 H   0  0  0  0  0  0  0  0  0  0  0  0
   -1.7596   -2.7522   -0.1996 H   0  0  0  0  0  0  0  0  0  0  0  0
   -2.6381   -1.9894    1.2665 H   0  0  0  0  0  0  0  0  0  0  0  0
   -2.5175   -1.0085   -1.6605 H   0  0  0  0  0  0  0  0  0  0  0  0
   -3.9972   -0.9923   -0.5079 H   0  0  0  0  0  0  0  0  0  0  0  0
   -2.8503    0.3595    1.0954 H   0  0  0  0  0  0  0  0  0  0  0  0
   -1.2054    2.0444   -0.0705 H   0  0  0  0  0  0  0  0  0  0  0  0
   -2.8732    1.9534   -0.6712 H   0  0  0  0  0  0  0  0  0  0  0  0
   -1.0040    1.8812   -2.2283 H   0  0  0  0  0  0  0  0  0  0  0  0
  1  2  1  0
  2  3  1  0
  3  4  2  0
  4  5  1  0
  5  6  2  0
  6  7  1  0
  7  8  1  0
  8  9  1  0
  9 10  1  0
 10 11  1  0
 11 12  1  0
 12 13  1  0
  7 14  2  0
 14  3  1  0
 11  8  1  0
  1 15  1  0
  1 16  1  0
  2 17  1  0
  5 18  1  0
  9 19  1  0
  9 20  1  0
 10 21  1  0
 10 22  1  0
 11 23  1  1
 12 24  1  0
 12 25  1  0
 13 26  1  0
M  END
$$$$

     RDKit          3D

 26 27  0  0  0  0  0  0  0  0999 V2000
    4.9943    0.0950   -0.4753 N   0  0  0  0  0  0  0  0  0  0  0  0
    3.8030   -0.5964   -0.2931 N   0  0  0  0  0  0  0  0  0  0  0  0
    2.5820    0.0961   -0.1341 C   0  0  0  0  0  0  0  0  0  0  0  0
    2.5643    1.4294   -0.1581 N   0  0  0  0  0  0  0  0  0  0  0  0
    1.4125    2.1040   -0.0084 C   0  0  0  0  0  0  0  0  0  0  0  0
    0.2509    1.4488    0.1690 N   0  0  0  0  0  0  0  0  0  0  0  0
    0.2447    0.1049    0.1966 C   0  0  0  0  0  0  0  0  0  0  0  0
   -0.9787   -0.6006    0.3837 N   0  0  0  0  0  0  0  0  0  0  0  0
   -1.3033   -2.0205    0.4584 C   0  0  0  0  0  0  0  0  0  0  0  0
   -2.6445   -1.6640   -0.1522 C   0  0  0  0  0  0  0  0  0  0  0  0
   -2.3741   -0.3407    0.5757 C   0  0  2  0  0  0  0  0  0  0  0  0
   -2.9512    0.8236   -0.1699 C   0  0  0  0  0  0  0  0  0  0  0  0
   -2.3668    2.0266    0.1377 O   0  0  0  0  0  0  0  0  0  0  0  0
    1.4060   -0.5326    0.0449 N   0  0  0  0  0  0  0  0  0  0  0  0
    4.8448    1.0676   -0.7776 H   0  0  0  0  0  0  0  0  0  0  0  0
    5.6092    0.0407    0.3550 H   0  0  0  0  0  0  0  0  0  0  0  0
    3.8513   -1.6443   -0.2793 H   0  0  0  0  0  0  0  0  0  0  0  0
    1.3684    3.1881   -0.0238 H   0  0  0  0  0  0  0  0  0  0  0  0
   -0.6697   -2.6850   -0.1334 H   0  0  0  0  0  0  0  0  0  0  0  0
   -1.4242   -2.2906    1.5328 H   0  0  0  0  0  0  0  0  0  0  0  0
   -2.5400   -1.5805   -1.2404 H   0  0  0  0  0  0  0  0  0  0  0  0
   -3.5020   -2.2292    0.2362 H   0  0  0  0  0  0  0  0  0  0  0  0
   -2.6664   -0.4133    1.6257 H   0  0  0  0  0  0  0  0  0  0  0  0
   -2.9140    0.6421   -1.2754 H   0  0  0  0  0  0  0  0  0  0  0  0
   -4.0305    0.8816    0.0811 H   0  0  0  0  0  0  0  0  0  0  0  0
   -2.5660    2.6492   -0.6304 H   0  0  0  0  0  0  0  0  0  0  0  0
  1  2  1  0
  2  3  1  0
  3  4  2  0
  4  5  1  0
  5  6  2  0
  6  7  1  0
  7  8  1  0
  8  9  1  0
  9 10  1  0
 10 11  1  0
 11 12  1  0
 12 13  1  0
  7 14  2  0
 14  3  1  0
 11  8  1  0
  1 15  1  0
  1 16  1  0
  2 17  1  0
  5 18  1  0
  9 19  1  0
  9 20  1  0
 10 21  1  0
 10 22  1  0
 11 23  1  1
 12 24  1  0
 12 25  1  0
 13 26  1  0
M  END
$$$$

     RDKit          3D

 26 27  0  0  0  0  0  0  0  0999 V2000
    4.0378   -0.8493   -1.1532 N   0  0  0  0  0  0  0  0  0  0  0  0
    3.9325    0.3173   -0.3986 N   0  0  0  0  0  0  0  0  0  0  0  0
    2.6633    0.7148    0.1462 C   0  0  0  0  0  0  0  0  0  0  0  0
    2.5727    1.8403    0.8716 N   0  0  0  0  0  0  0  0  0  0  0  0
    1.4135    2.2658    1.4084 C   0  0  0  0  0  0  0  0  0  0  0  0
    0.3191    1.5113    1.1915 N   0  0  0  0  0  0  0  0  0  0  0  0
    0.3917    0.3804    0.4670 C   0  0  0  0  0  0  0  0  0  0  0  0
   -0.8046   -0.3543    0.2864 N   0  0  0  0  0  0  0  0  0  0  0  0
   -1.0988   -1.6062   -0.4287 C   0  0  0  0  0  0  0  0  0  0  0  0
   -2.2130   -1.8204    0.5797 C   0  0  0  0  0  0  0  0  0  0  0  0
   -2.1966   -0.3064    0.6413 C   0  0  2  0  0  0  0  0  0  0  0  0
   -3.1025    0.3327   -0.3709 C   0  0  0  0  0  0  0  0  0  0  0  0
   -2.7652    1.6563   -0.6320 O   0  0  0  0  0  0  0  0  0  0  0  0
    1.5633   -0.0180   -0.0557 N   0  0  0  0  0  0  0  0  0  0  0  0
    4.1900   -0.6393   -2.1765 H   0  0  0  0  0  0  0  0  0  0  0  0
    4.8351   -1.4301   -0.8306 H   0  0  0  0  0  0  0  0  0  0  0  0
    4.7731    0.9093   -0.2243 H   0  0  0  0  0  0  0  0  0  0  0  0
    1.3703    3.1771    1.9886 H   0  0  0  0  0  0  0  0  0  0  0  0
   -1.4223   -1.3790   -1.4461 H   0  0  0  0  0  0  0  0  0  0  0  0
   -0.2854   -2.3506   -0.3474 H   0  0  0  0  0  0  0  0  0  0  0  0
   -3.1011   -2.2540    0.0812 H   0  0  0  0  0  0  0  0  0  0  0  0
   -1.8817   -2.3160    1.4927 H   0  0  0  0  0  0  0  0  0  0  0  0
   -2.3418    0.0629    1.6801 H   0  0  0  0  0  0  0  0  0  0  0  0
   -3.1523   -0.2906   -1.2847 H   0  0  0  0  0  0  0  0  0  0  0  0
   -4.1292    0.3575    0.0798 H   0  0  0  0  0  0  0  0  0  0  0  0
   -3.5678    2.0885   -1.0310 H   0  0  0  0  0  0  0  0  0  0  0  0
  1  2  1  0
  2  3  1  0
  3  4  2  0
  4  5  1  0
  5  6  2  0
  6  7  1  0
  7  8  1  0
  8  9  1  0
  9 10  1  0
 10 11  1  0
 11 12  1  0
 12 13  1  0
  7 14  2  0
 14  3  1  0
 11  8  1  0
  1 15  1  0
  1 16  1  0
  2 17  1  0
  5 18  1  0
  9 19  1  0
  9 20  1  0
 10 21  1  0
 10 22  1  0
 11 23  1  1
 12 24  1  0
 12 25  1  0
 13 26  1  0
M  END
$$$$

     RDKit          3D

 26 27  0  0  0  0  0  0  0  0999 V2000
    4.9560   -0.0467    0.9494 N   0  0  0  0  0  0  0  0  0  0  0  0
    3.6308    0.1934    1.3159 N   0  0  0  0  0  0  0  0  0  0  0  0
    2.5612    0.0611    0.3741 C   0  0  0  0  0  0  0  0  0  0  0  0
    2.7787   -0.2991   -0.9026 N   0  0  0  0  0  0  0  0  0  0  0  0
    1.7965   -0.4306   -1.8053 C   0  0  0  0  0  0  0  0  0  0  0  0
    0.5414   -0.1850   -1.3896 N   0  0  0  0  0  0  0  0  0  0  0  0
    0.2454    0.1795   -0.1287 C   0  0  0  0  0  0  0  0  0  0  0  0
   -1.0831    0.4369    0.3011 N   0  0  0  0  0  0  0  0  0  0  0  0
   -1.7511    0.8265    1.5037 C   0  0  0  0  0  0  0  0  0  0  0  0
   -3.0969    0.6052    0.8898 C   0  0  0  0  0  0  0  0  0  0  0  0
   -2.3576    0.3957   -0.3787 C   0  0  2  0  0  0  0  0  0  0  0  0
   -2.5387   -0.9416   -1.0554 C   0  0  0  0  0  0  0  0  0  0  0  0
   -2.5037   -1.9908   -0.1446 O   0  0  0  0  0  0  0  0  0  0  0  0
    1.2844    0.2924    0.7264 N   0  0  0  0  0  0  0  0  0  0  0  0
    4.9503   -0.5328    0.0153 H   0  0  0  0  0  0  0  0  0  0  0  0
    5.4230    0.8869    0.7528 H   0  0  0  0  0  0  0  0  0  0  0  0
    3.4413    0.4728    2.2980 H   0  0  0  0  0  0  0  0  0  0  0  0
    1.9653   -0.7203   -2.8346 H   0  0  0  0  0  0  0  0  0  0  0  0
   -1.5878    0.1677    2.3799 H   0  0  0  0  0  0  0  0  0  0  0  0
   -1.5749    1.9110    1.7001 H   0  0  0  0  0  0  0  0  0  0  0  0
   -3.6775   -0.2415    1.2858 H   0  0  0  0  0  0  0  0  0  0  0  0
   -3.7242    1.5409    0.8373 H   0  0  0  0  0  0  0  0  0  0  0  0
   -2.4181    1.2149   -1.1103 H   0  0  0  0  0  0  0  0  0  0  0  0
   -1.6723   -1.0802   -1.7360 H   0  0  0  0  0  0  0  0  0  0  0  0
   -3.4433   -0.9868   -1.6815 H   0  0  0  0  0  0  0  0  0  0  0  0
   -2.1451   -1.7297    0.7224 H   0  0  0  0  0  0  0  0  0  0  0  0
  1  2  1  0
  2  3  1  0
  3  4  2  0
  4  5  1  0
  5  6  2  0
  6  7  1  0
  7  8  1  0
  8  9  1  0
  9 10  1  0
 10 11  1  0
 11 12  1  0
 12 13  1  0
  7 14  2  0
 14  3  1  0
 11  8  1  0
  1 15  1  0
  1 16  1  0
  2 17  1  0
  5 18  1  0
  9 19  1  0
  9 20  1  0
 10 21  1  0
 10 22  1  0
 11 23  1  6
 12 24  1  0
 12 25  1  0
 13 26  1  0
M  END
$$$$

     RDKit          3D

 26 27  0  0  0  0  0  0  0  0999 V2000
    4.3553    1.1694    0.6297 N   0  0  0  0  0  0  0  0  0  0  0  0
    3.8456    0.3819   -0.3902 N   0  0  0  0  0  0  0  0  0  0  0  0
    2.6976   -0.4332   -0.2407 C   0  0  0  0  0  0  0  0  0  0  0  0
    2.7263   -1.7443    0.0674 N   0  0  0  0  0  0  0  0  0  0  0  0
    1.5547   -2.4300    0.1841 C   0  0  0  0  0  0  0  0  0  0  0  0
    0.3668   -1.8140   -0.0039 N   0  0  0  0  0  0  0  0  0  0  0  0
    0.3227   -0.4948   -0.3138 C   0  0  0  0  0  0  0  0  0  0  0  0
   -0.9202    0.1767   -0.5219 N   0  0  0  0  0  0  0  0  0  0  0  0
   -1.2256    1.5925   -0.6717 C   0  0  0  0  0  0  0  0  0  0  0  0
   -2.6888    1.2759   -0.8530 C   0  0  0  0  0  0  0  0  0  0  0  0
   -2.3139   -0.1680   -0.6782 C   0  0  2  0  0  0  0  0  0  0  0  0
   -2.8980   -0.8457    0.5462 C   0  0  0  0  0  0  0  0  0  0  0  0
   -2.8040   -0.0197    1.6670 O   0  0  0  0  0  0  0  0  0  0  0  0
    1.5030    0.1408   -0.4193 N   0  0  0  0  0  0  0  0  0  0  0  0
    3.6956    1.8972    0.9242 H   0  0  0  0  0  0  0  0  0  0  0  0
    4.7527    0.6381    1.4312 H   0  0  0  0  0  0  0  0  0  0  0  0
    4.3301    0.3854   -1.3098 H   0  0  0  0  0  0  0  0  0  0  0  0
    1.6122   -3.4964    0.4355 H   0  0  0  0  0  0  0  0  0  0  0  0
   -0.7581    2.0136   -1.5790 H   0  0  0  0  0  0  0  0  0  0  0  0
   -0.9739    2.1276    0.2682 H   0  0  0  0  0  0  0  0  0  0  0  0
   -3.0936    1.5534   -1.8499 H   0  0  0  0  0  0  0  0  0  0  0  0
   -3.3488    1.6148   -0.0443 H   0  0  0  0  0  0  0  0  0  0  0  0
   -2.5117   -0.7504   -1.6068 H   0  0  0  0  0  0  0  0  0  0  0  0
   -2.4093   -1.8267    0.7026 H   0  0  0  0  0  0  0  0  0  0  0  0
   -3.9734   -1.0582    0.4040 H   0  0  0  0  0  0  0  0  0  0  0  0
   -1.8433    0.1142    1.8447 H   0  0  0  0  0  0  0  0  0  0  0  0
  1  2  1  0
  2  3  1  0
  3  4  2  0
  4  5  1  0
  5  6  2  0
  6  7  1  0
  7  8  1  0
  8  9  1  0
  9 10  1  0
 10 11  1  0
 11 12  1  0
 12 13  1  0
  7 14  2  0
 14  3  1  0
 11  8  1  0
  1 15  1  0
  1 16  1  0
  2 17  1  0
  5 18  1  0
  9 19  1  0
  9 20  1  0
 10 21  1  0
 10 22  1  0
 11 23  1  6
 12 24  1  0
 12 25  1  0
 13 26  1  0
M  END
$$$$

     RDKit          3D

 26 27  0  0  0  0  0  0  0  0999 V2000
    4.5253    0.8735    0.9669 N   0  0  0  0  0  0  0  0  0  0  0  0
    3.1595    0.9972    0.9797 N   0  0  0  0  0  0  0  0  0  0  0  0
    2.3191    0.0029    0.4173 C   0  0  0  0  0  0  0  0  0  0  0  0
    2.8680   -1.1058   -0.1516 N   0  0  0  0  0  0  0  0  0  0  0  0
    2.1027   -2.0588   -0.6891 C   0  0  0  0  0  0  0  0  0  0  0  0
    0.7719   -1.9097   -0.6618 N   0  0  0  0  0  0  0  0  0  0  0  0
    0.1597   -0.8425   -0.1174 C   0  0  0  0  0  0  0  0  0  0  0  0
   -1.2546   -0.6991   -0.0961 N   0  0  0  0  0  0  0  0  0  0  0  0
   -2.3199   -1.5501   -0.5879 C   0  0  0  0  0  0  0  0  0  0  0  0
   -3.1926   -0.3494   -0.7287 C   0  0  0  0  0  0  0  0  0  0  0  0
   -2.2700    0.2253    0.3542 C   0  0  2  0  0  0  0  0  0  0  0  0
   -2.0053    1.6732    0.0406 C   0  0  0  0  0  0  0  0  0  0  0  0
   -0.8152    2.0694    0.6447 O   0  0  0  0  0  0  0  0  0  0  0  0
    0.9780    0.0979    0.4155 N   0  0  0  0  0  0  0  0  0  0  0  0
    4.9885    1.2933    1.8106 H   0  0  0  0  0  0  0  0  0  0  0  0
    4.8807   -0.0595    0.7273 H   0  0  0  0  0  0  0  0  0  0  0  0
    2.7151    1.8314    1.4068 H   0  0  0  0  0  0  0  0  0  0  0  0
    2.4958   -2.9573   -1.1522 H   0  0  0  0  0  0  0  0  0  0  0  0
   -2.0982   -2.1167   -1.5035 H   0  0  0  0  0  0  0  0  0  0  0  0
   -2.6524   -2.2138    0.2577 H   0  0  0  0  0  0  0  0  0  0  0  0
   -3.0665    0.1808   -1.6986 H   0  0  0  0  0  0  0  0  0  0  0  0
   -4.2338   -0.4979   -0.4026 H   0  0  0  0  0  0  0  0  0  0  0  0
   -2.6749    0.0034    1.3528 H   0  0  0  0  0  0  0  0  0  0  0  0
   -2.8079    2.2884    0.4837 H   0  0  0  0  0  0  0  0  0  0  0  0
   -1.9577    1.8210   -1.0485 H   0  0  0  0  0  0  0  0  0  0  0  0
   -0.6154    3.0031    0.3174 H   0  0  0  0  0  0  0  0  0  0  0  0
  1  2  1  0
  2  3  1  0
  3  4  2  0
  4  5  1  0
  5  6  2  0
  6  7  1  0
  7  8  1  0
  8  9  1  0
  9 10  1  0
 10 11  1  0
 11 12  1  0
 12 13  1  0
  7 14  2  0
 14  3  1  0
 11  8  1  0
  1 15  1  0
  1 16  1  0
  2 17  1  0
  5 18  1  0
  9 19  1  0
  9 20  1  0
 10 21  1  0
 10 22  1  0
 11 23  1  1
 12 24  1  0
 12 25  1  0
 13 26  1  0
M  END
$$$$

     RDKit          3D

 26 27  0  0  0  0  0  0  0  0999 V2000
    4.5450    0.9099    0.2996 N   0  0  0  0  0  0  0  0  0  0  0  0
    3.9304   -0.1111   -0.4140 N   0  0  0  0  0  0  0  0  0  0  0  0
    2.6565   -0.6104   -0.0133 C   0  0  0  0  0  0  0  0  0  0  0  0
    2.5849   -1.6567    0.8169 N   0  0  0  0  0  0  0  0  0  0  0  0
    1.3867   -2.1337    1.1993 C   0  0  0  0  0  0  0  0  0  0  0  0
    0.2567   -1.5669    0.7539 N   0  0  0  0  0  0  0  0  0  0  0  0
    0.3333   -0.5197   -0.0769 C   0  0  0  0  0  0  0  0  0  0  0  0
   -0.8265    0.1269   -0.5869 N   0  0  0  0  0  0  0  0  0  0  0  0
   -1.0548    1.2690   -1.4444 C   0  0  0  0  0  0  0  0  0  0  0  0
   -2.3541    1.4885   -0.6587 C   0  0  0  0  0  0  0  0  0  0  0  0
   -2.2679   -0.0178   -0.5163 C   0  0  2  0  0  0  0  0  0  0  0  0
   -2.8075   -0.5887    0.7614 C   0  0  0  0  0  0  0  0  0  0  0  0
   -4.2069   -0.6440    0.6225 O   0  0  0  0  0  0  0  0  0  0  0  0
    1.5375   -0.0580   -0.4474 N   0  0  0  0  0  0  0  0  0  0  0  0
    5.5681    0.8645    0.2995 H   0  0  0  0  0  0  0  0  0  0  0  0
    4.1873    1.8385   -0.0463 H   0  0  0  0  0  0  0  0  0  0  0  0
    4.3668   -0.5390   -1.2466 H   0  0  0  0  0  0  0  0  0  0  0  0
    1.4071   -2.9885    1.8769 H   0  0  0  0  0  0  0  0  0  0  0  0
   -0.3316    2.0999   -1.3424 H   0  0  0  0  0  0  0  0  0  0  0  0
   -1.3153    0.9581   -2.4714 H   0  0  0  0  0  0  0  0  0  0  0  0
   -2.1164    2.0350    0.2624 H   0  0  0  0  0  0  0  0  0  0  0  0
   -3.2002    1.8660   -1.2632 H   0  0  0  0  0  0  0  0  0  0  0  0
   -2.6974   -0.5556   -1.3828 H   0  0  0  0  0  0  0  0  0  0  0  0
   -2.4688   -1.6454    0.8143 H   0  0  0  0  0  0  0  0  0  0  0  0
   -2.5682   -0.0226    1.6648 H   0  0  0  0  0  0  0  0  0  0  0  0
   -4.5446    0.2020    0.1997 H   0  0  0  0  0  0  0  0  0  0  0  0
  1  2  1  0
  2  3  1  0
  3  4  2  0
  4  5  1  0
  5  6  2  0
  6  7  1  0
  7  8  1  0
  8  9  1  0
  9 10  1  0
 10 11  1  0
 11 12  1  0
 12 13  1  0
  7 14  2  0
 14  3  1  0
 11  8  1  0
  1 15  1  0
  1 16  1  0
  2 17  1  0
  5 18  1  0
  9 19  1  0
  9 20  1  0
 10 21  1  0
 10 22  1  0
 11 23  1  6
 12 24  1  0
 12 25  1  0
 13 26  1  0
M  END
$$$$

     RDKit          3D

 26 27  0  0  0  0  0  0  0  0999 V2000
    4.4063    0.9564    1.3613 N   0  0  0  0  0  0  0  0  0  0  0  0
    3.0206    1.0030    1.2749 N   0  0  0  0  0  0  0  0  0  0  0  0
    2.3172    0.0349    0.5096 C   0  0  0  0  0  0  0  0  0  0  0  0
    2.9884   -0.9300   -0.1340 N   0  0  0  0  0  0  0  0  0  0  0  0
    2.2888   -1.8244   -0.8455 C   0  0  0  0  0  0  0  0  0  0  0  0
    0.9478   -1.7397   -0.9004 N   0  0  0  0  0  0  0  0  0  0  0  0
    0.2501   -0.7878   -0.2686 C   0  0  0  0  0  0  0  0  0  0  0  0
   -1.1557   -0.7685   -0.3768 N   0  0  0  0  0  0  0  0  0  0  0  0
   -2.1352   -1.5894   -1.0595 C   0  0  0  0  0  0  0  0  0  0  0  0
   -3.0021   -0.3401   -1.1666 C   0  0  0  0  0  0  0  0  0  0  0  0
   -2.2789    0.0308    0.1074 C   0  0  2  0  0  0  0  0  0  0  0  0
   -1.9744    1.5014    0.2375 C   0  0  0  0  0  0  0  0  0  0  0  0
   -1.6088    2.0360   -0.9989 O   0  0  0  0  0  0  0  0  0  0  0  0
    0.9580    0.1034    0.4413 N   0  0  0  0  0  0  0  0  0  0  0  0
    4.7299   -0.0417    1.3275 H   0  0  0  0  0  0  0  0  0  0  0  0
    4.7025    1.4401    2.2260 H   0  0  0  0  0  0  0  0  0  0  0  0
    2.4998    1.7588    1.7796 H   0  0  0  0  0  0  0  0  0  0  0  0
    2.8466   -2.5963   -1.3585 H   0  0  0  0  0  0  0  0  0  0  0  0
   -1.8158   -2.0149   -2.0175 H   0  0  0  0  0  0  0  0  0  0  0  0
   -2.5747   -2.3327   -0.3607 H   0  0  0  0  0  0  0  0  0  0  0  0
   -2.6853    0.3121   -2.0091 H   0  0  0  0  0  0  0  0  0  0  0  0
   -4.0790   -0.5140   -1.0683 H   0  0  0  0  0  0  0  0  0  0  0  0
   -2.7928   -0.3717    0.9867 H   0  0  0  0  0  0  0  0  0  0  0  0
   -1.2105    1.6458    1.0032 H   0  0  0  0  0  0  0  0  0  0  0  0
   -2.9134    2.0024    0.5369 H   0  0  0  0  0  0  0  0  0  0  0  0
   -1.7295    3.0260   -1.0207 H   0  0  0  0  0  0  0  0  0  0  0  0
  1  2  1  0
  2  3  1  0
  3  4  2  0
  4  5  1  0
  5  6  2  0
  6  7  1  0
  7  8  1  0
  8  9  1  0
  9 10  1  0
 10 11  1  0
 11 12  1  0
 12 13  1  0
  7 14  2  0
 14  3  1  0
 11  8  1  0
  1 15  1  0
  1 16  1  0
  2 17  1  0
  5 18  1  0
  9 19  1  0
  9 20  1  0
 10 21  1  0
 10 22  1  0
 11 23  1  1
 12 24  1  0
 12 25  1  0
 13 26  1  0
M  END
$$$$
