
     RDKit          3D

 27 27  0  0  0  0  0  0  0  0999 V2000
    2.7956   -0.7954    1.0827 N   0  0  0  0  0  0  0  0  0  0  0  0
    2.4799   -0.6592   -0.1452 C   0  0  0  0  0  0  0  0  0  0  0  0
    1.4005   -1.4958   -0.7260 C   0  0  0  0  0  0  0  0  0  0  0  0
    0.3547   -0.6944   -1.1905 N   0  0  0  0  0  0  0  0  0  0  0  0
   -0.4440    0.0117   -0.2495 C   0  0  2  0  0  0  0  0  0  0  0  0
   -1.1685   -0.9522    0.5958 C   0  0  0  0  0  0  0  0  0  0  0  0
   -1.9692   -0.5500    1.7247 N   0  0  0  0  0  0  0  0  0  0  0  0
   -1.1581   -2.2109    0.4198 O   0  0  0  0  0  0  0  0  0  0  0  0
   -1.4082    0.8977   -0.9632 C   0  0  0  0  0  0  0  0  0  0  0  0
   -2.3907    1.7519   -0.2915 C   0  0  0  0  0  0  0  0  0  0  0  0
   -2.8588    0.4676   -0.9308 C   0  0  0  0  0  0  0  0  0  0  0  0
    3.1291    0.2753   -0.9878 N   0  0  0  0  0  0  0  0  0  0  0  0
    4.3838    0.6946   -0.6694 O   0  0  0  0  0  0  0  0  0  0  0  0
    3.5255   -0.2654    1.5783 H   0  0  0  0  0  0  0  0  0  0  0  0
    1.8120   -2.0605   -1.6173 H   0  0  0  0  0  0  0  0  0  0  0  0
    1.0713   -2.2569   -0.0223 H   0  0  0  0  0  0  0  0  0  0  0  0
    0.4386   -0.2721   -2.1247 H   0  0  0  0  0  0  0  0  0  0  0  0
    0.2054    0.6070    0.4642 H   0  0  0  0  0  0  0  0  0  0  0  0
   -2.8417   -1.0337    1.9627 H   0  0  0  0  0  0  0  0  0  0  0  0
   -1.6460    0.2373    2.2990 H   0  0  0  0  0  0  0  0  0  0  0  0
   -1.0023    1.2810   -1.9302 H   0  0  0  0  0  0  0  0  0  0  0  0
   -2.4926    1.8646    0.7856 H   0  0  0  0  0  0  0  0  0  0  0  0
   -2.7435    2.6671   -0.8456 H   0  0  0  0  0  0  0  0  0  0  0  0
   -3.2265   -0.2855   -0.2471 H   0  0  0  0  0  0  0  0  0  0  0  0
   -3.3506    0.5175   -1.9277 H   0  0  0  0  0  0  0  0  0  0  0  0
    2.7019    0.6753   -1.8608 H   0  0  0  0  0  0  0  0  0  0  0  0
    4.4022    1.5833   -0.2643 H   0  0  0  0  0  0  0  0  0  0  0  0
  1  2  2  3
  2  3  1  0
  3  4  1  0
  4  5  1  0
  5  6  1  0
  6  7  1  0
  6  8  2  0
  5  9  1  0
  9 10  1  0
 10 11  1  0
  2 12  1  0
 12 13  1  0
 11  9  1  0
  1 14  1  0
  3 15  1  0
  3 16  1  0
  4 17  1  0
  5 18  1  1
  7 19  1  0
  7 20  1  0
  9 21  1  0
 10 22  1  0
 10 23  1  0
 11 24  1  0
 11 25  1  0
 12 26  1  0
 13 27  1  0
M  END
$$$$

     RDKit          3D

 27 27  0  0  0  0  0  0  0  0999 V2000
    3.7263    0.0817   -0.4915 N   0  0  0  0  0  0  0  0  0  0  0  0
    2.7461    0.4714    0.2734 C   0  0  0  0  0  0  0  0  0  0  0  0
    1.5110   -0.3912    0.3827 C   0  0  0  0  0  0  0  0  0  0  0  0
    0.3935    0.3433   -0.1037 N   0  0  0  0  0  0  0  0  0  0  0  0
   -0.7977   -0.4730   -0.0485 C   0  0  2  0  0  0  0  0  0  0  0  0
   -0.7368   -1.6215   -0.9666 C   0  0  0  0  0  0  0  0  0  0  0  0
   -1.7391   -2.6158   -1.0173 N   0  0  0  0  0  0  0  0  0  0  0  0
    0.2315   -1.7506   -1.7459 O   0  0  0  0  0  0  0  0  0  0  0  0
   -2.0074    0.3875   -0.3510 C   0  0  0  0  0  0  0  0  0  0  0  0
   -2.2794    1.5582    0.5487 C   0  0  0  0  0  0  0  0  0  0  0  0
   -3.1076    0.3126    0.7295 C   0  0  0  0  0  0  0  0  0  0  0  0
    2.8295    1.6753    0.9932 N   0  0  0  0  0  0  0  0  0  0  0  0
    3.9372    2.4628    0.8800 O   0  0  0  0  0  0  0  0  0  0  0  0
    3.6409   -0.8249   -1.0196 H   0  0  0  0  0  0  0  0  0  0  0  0
    1.3414   -0.5818    1.4858 H   0  0  0  0  0  0  0  0  0  0  0  0
    1.7041   -1.3560   -0.1097 H   0  0  0  0  0  0  0  0  0  0  0  0
    0.5264    0.6072   -1.1249 H   0  0  0  0  0  0  0  0  0  0  0  0
   -0.8706   -0.8553    0.9844 H   0  0  0  0  0  0  0  0  0  0  0  0
   -2.7484   -2.4351   -0.8925 H   0  0  0  0  0  0  0  0  0  0  0  0
   -1.4642   -3.6366   -1.1922 H   0  0  0  0  0  0  0  0  0  0  0  0
   -2.3247    0.4811   -1.3875 H   0  0  0  0  0  0  0  0  0  0  0  0
   -2.7780    2.4471    0.1256 H   0  0  0  0  0  0  0  0  0  0  0  0
   -1.4964    1.8010    1.2878 H   0  0  0  0  0  0  0  0  0  0  0  0
   -2.8953   -0.3000    1.6120 H   0  0  0  0  0  0  0  0  0  0  0  0
   -4.1442    0.3285    0.3173 H   0  0  0  0  0  0  0  0  0  0  0  0
    2.0593    1.9542    1.6031 H   0  0  0  0  0  0  0  0  0  0  0  0
    4.7426    1.9300    1.0834 H   0  0  0  0  0  0  0  0  0  0  0  0
  1  2  2  3
  2  3  1  0
  3  4  1  0
  4  5  1  0
  5  6  1  0
  6  7  1  0
  6  8  2  0
  5  9  1  0
  9 10  1  0
 10 11  1  0
  2 12  1  0
 12 13  1  0
 11  9  1  0
  1 14  1  0
  3 15  1  0
  3 16  1  0
  4 17  1  0
  5 18  1  1
  7 19  1  0
  7 20  1  0
  9 21  1  0
 10 22  1  0
 10 23  1  0
 11 24  1  0
 11 25  1  0
 12 26  1  0
 13 27  1  0
M  END
$$$$

     RDKit          3D

 27 27  0  0  0  0  0  0  0  0999 V2000
    2.3830   -0.2569   -2.7609 N   0  0  0  0  0  0  0  0  0  0  0  0
    2.2305    0.0390   -1.5280 C   0  0  0  0  0  0  0  0  0  0  0  0
    1.2859   -0.7481   -0.6795 C   0  0  0  0  0  0  0  0  0  0  0  0
    0.2352    0.0632   -0.1567 N   0  0  0  0  0  0  0  0  0  0  0  0
   -0.6680   -0.6459    0.7179 C   0  0  2  0  0  0  0  0  0  0  0  0
   -1.4378   -1.6893    0.0528 C   0  0  0  0  0  0  0  0  0  0  0  0
   -2.3142   -2.5045    0.8134 N   0  0  0  0  0  0  0  0  0  0  0  0
   -1.3499   -1.8887   -1.1676 O   0  0  0  0  0  0  0  0  0  0  0  0
   -1.5097    0.3810    1.4246 C   0  0  0  0  0  0  0  0  0  0  0  0
   -2.3793    1.3321    0.7549 C   0  0  0  0  0  0  0  0  0  0  0  0
   -1.0518    1.8267    1.2280 C   0  0  0  0  0  0  0  0  0  0  0  0
    2.9687    1.1229   -0.9830 N   0  0  0  0  0  0  0  0  0  0  0  0
    4.1946    1.4610   -1.4364 O   0  0  0  0  0  0  0  0  0  0  0  0
    1.8395   -1.0565   -3.1707 H   0  0  0  0  0  0  0  0  0  0  0  0
    0.8763   -1.6110   -1.2144 H   0  0  0  0  0  0  0  0  0  0  0  0
    1.8491   -1.1689    0.1867 H   0  0  0  0  0  0  0  0  0  0  0  0
   -0.2808    0.5943   -0.9029 H   0  0  0  0  0  0  0  0  0  0  0  0
    0.0158   -1.1000    1.5173 H   0  0  0  0  0  0  0  0  0  0  0  0
   -2.7576   -2.1308    1.6654 H   0  0  0  0  0  0  0  0  0  0  0  0
   -2.5258   -3.4882    0.5315 H   0  0  0  0  0  0  0  0  0  0  0  0
   -1.7541    0.0951    2.4801 H   0  0  0  0  0  0  0  0  0  0  0  0
   -3.2269    1.7539    1.3735 H   0  0  0  0  0  0  0  0  0  0  0  0
   -2.5905    1.3654   -0.3196 H   0  0  0  0  0  0  0  0  0  0  0  0
   -0.3340    2.0831    0.4388 H   0  0  0  0  0  0  0  0  0  0  0  0
   -0.9313    2.4239    2.1444 H   0  0  0  0  0  0  0  0  0  0  0  0
    2.5593    1.6888   -0.2008 H   0  0  0  0  0  0  0  0  0  0  0  0
    4.6738    2.0583   -0.8089 H   0  0  0  0  0  0  0  0  0  0  0  0
  1  2  2  3
  2  3  1  0
  3  4  1  0
  4  5  1  0
  5  6  1  0
  6  7  1  0
  6  8  2  0
  5  9  1  0
  9 10  1  0
 10 11  1  0
  2 12  1  0
 12 13  1  0
 11  9  1  0
  1 14  1  0
  3 15  1  0
  3 16  1  0
  4 17  1  0
  5 18  1  1
  7 19  1  0
  7 20  1  0
  9 21  1  0
 10 22  1  0
 10 23  1  0
 11 24  1  0
 11 25  1  0
 12 26  1  0
 13 27  1  0
M  END
$$$$

     RDKit          3D

 27 27  0  0  0  0  0  0  0  0999 V2000
    3.3852   -1.6056    0.3727 N   0  0  0  0  0  0  0  0  0  0  0  0
    2.5945   -0.7842   -0.2219 C   0  0  0  0  0  0  0  0  0  0  0  0
    1.3322   -1.2177   -0.8599 C   0  0  0  0  0  0  0  0  0  0  0  0
    0.1563   -1.0937   -0.1240 N   0  0  0  0  0  0  0  0  0  0  0  0
   -0.3800    0.1957    0.1987 C   0  0  2  0  0  0  0  0  0  0  0  0
   -0.9325    0.0905    1.5622 C   0  0  0  0  0  0  0  0  0  0  0  0
   -2.0782    0.6939    2.0844 N   0  0  0  0  0  0  0  0  0  0  0  0
   -0.2854   -0.6468    2.3761 O   0  0  0  0  0  0  0  0  0  0  0  0
   -1.2685    0.7372   -0.8461 C   0  0  0  0  0  0  0  0  0  0  0  0
   -2.5257    0.0007   -1.2382 C   0  0  0  0  0  0  0  0  0  0  0  0
   -2.5615    1.3900   -0.7127 C   0  0  0  0  0  0  0  0  0  0  0  0
    2.9879    0.5817   -0.2133 N   0  0  0  0  0  0  0  0  0  0  0  0
    3.9385    1.0700    0.6463 O   0  0  0  0  0  0  0  0  0  0  0  0
    3.1289   -2.6063    0.4086 H   0  0  0  0  0  0  0  0  0  0  0  0
    1.4823   -2.3244   -1.0610 H   0  0  0  0  0  0  0  0  0  0  0  0
    1.2742   -0.7729   -1.8950 H   0  0  0  0  0  0  0  0  0  0  0  0
   -0.5436   -1.8402   -0.1498 H   0  0  0  0  0  0  0  0  0  0  0  0
    0.5030    0.8831    0.2942 H   0  0  0  0  0  0  0  0  0  0  0  0
   -3.0258    0.2323    2.1178 H   0  0  0  0  0  0  0  0  0  0  0  0
   -2.0262    1.6609    2.4663 H   0  0  0  0  0  0  0  0  0  0  0  0
   -0.6872    1.0534   -1.7780 H   0  0  0  0  0  0  0  0  0  0  0  0
   -2.7676   -0.1777   -2.2995 H   0  0  0  0  0  0  0  0  0  0  0  0
   -2.7487   -0.8783   -0.6024 H   0  0  0  0  0  0  0  0  0  0  0  0
   -3.0277    1.6609    0.2421 H   0  0  0  0  0  0  0  0  0  0  0  0
   -2.8625    2.1512   -1.5029 H   0  0  0  0  0  0  0  0  0  0  0  0
    2.5521    1.2770   -0.8714 H   0  0  0  0  0  0  0  0  0  0  0  0
    4.3863    0.2694    1.0373 H   0  0  0  0  0  0  0  0  0  0  0  0
  1  2  2  3
  2  3  1  0
  3  4  1  0
  4  5  1  0
  5  6  1  0
  6  7  1  0
  6  8  2  0
  5  9  1  0
  9 10  1  0
 10 11  1  0
  2 12  1  0
 12 13  1  0
 11  9  1  0
  1 14  1  0
  3 15  1  0
  3 16  1  0
  4 17  1  0
  5 18  1  1
  7 19  1  0
  7 20  1  0
  9 21  1  0
 10 22  1  0
 10 23  1  0
 11 24  1  0
 11 25  1  0
 12 26  1  0
 13 27  1  0
M  END
$$$$

     RDKit          3D

 27 27  0  0  0  0  0  0  0  0999 V2000
    2.7291   -1.6353   -0.2313 N   0  0  0  0  0  0  0  0  0  0  0  0
    2.7677   -0.3479   -0.2426 C   0  0  0  0  0  0  0  0  0  0  0  0
    1.4720    0.3903   -0.2445 C   0  0  0  0  0  0  0  0  0  0  0  0
    0.3410   -0.4660   -0.2417 N   0  0  0  0  0  0  0  0  0  0  0  0
   -0.8783    0.2871   -0.2392 C   0  0  2  0  0  0  0  0  0  0  0  0
   -1.0991    1.1099    0.9743 C   0  0  0  0  0  0  0  0  0  0  0  0
   -2.1995    1.9965    1.0864 N   0  0  0  0  0  0  0  0  0  0  0  0
   -0.3128    1.0637    1.9718 O   0  0  0  0  0  0  0  0  0  0  0  0
   -2.0679   -0.5141   -0.6726 C   0  0  0  0  0  0  0  0  0  0  0  0
   -2.5204   -1.7404    0.0117 C   0  0  0  0  0  0  0  0  0  0  0  0
   -3.2667   -0.4452    0.2330 C   0  0  0  0  0  0  0  0  0  0  0  0
    4.0258    0.2858   -0.2524 N   0  0  0  0  0  0  0  0  0  0  0  0
    5.1908   -0.3318   -0.5600 O   0  0  0  0  0  0  0  0  0  0  0  0
    3.5376   -2.2732   -0.2285 H   0  0  0  0  0  0  0  0  0  0  0  0
    1.4385    1.1763    0.5266 H   0  0  0  0  0  0  0  0  0  0  0  0
    1.4664    0.9415   -1.2347 H   0  0  0  0  0  0  0  0  0  0  0  0
    0.3674   -1.2584    0.4084 H   0  0  0  0  0  0  0  0  0  0  0  0
   -0.7211    1.0677   -1.0596 H   0  0  0  0  0  0  0  0  0  0  0  0
   -2.3645    2.5419    1.9396 H   0  0  0  0  0  0  0  0  0  0  0  0
   -2.8456    2.0864    0.2794 H   0  0  0  0  0  0  0  0  0  0  0  0
   -2.3494   -0.4677   -1.7673 H   0  0  0  0  0  0  0  0  0  0  0  0
   -3.0497   -2.5176   -0.5746 H   0  0  0  0  0  0  0  0  0  0  0  0
   -1.9661   -2.1725    0.8679 H   0  0  0  0  0  0  0  0  0  0  0  0
   -4.2825   -0.3815   -0.2119 H   0  0  0  0  0  0  0  0  0  0  0  0
   -3.2115   -0.0687    1.2650 H   0  0  0  0  0  0  0  0  0  0  0  0
    4.0368    1.3089   -0.0007 H   0  0  0  0  0  0  0  0  0  0  0  0
    5.7619    0.3641   -0.9957 H   0  0  0  0  0  0  0  0  0  0  0  0
  1  2  2  3
  2  3  1  0
  3  4  1  0
  4  5  1  0
  5  6  1  0
  6  7  1  0
  6  8  2  0
  5  9  1  0
  9 10  1  0
 10 11  1  0
  2 12  1  0
 12 13  1  0
 11  9  1  0
  1 14  1  0
  3 15  1  0
  3 16  1  0
  4 17  1  0
  5 18  1  6
  7 19  1  0
  7 20  1  0
  9 21  1  0
 10 22  1  0
 10 23  1  0
 11 24  1  0
 11 25  1  0
 12 26  1  0
 13 27  1  0
M  END
$$$$

     RDKit          3D

 27 27  0  0  0  0  0  0  0  0999 V2000
    3.3428    1.2808    1.2786 N   0  0  0  0  0  0  0  0  0  0  0  0
    2.8310    0.4858    0.4135 C   0  0  0  0  0  0  0  0  0  0  0  0
    1.4830    0.7961   -0.1145 C   0  0  0  0  0  0  0  0  0  0  0  0
    0.5685   -0.2936   -0.0164 N   0  0  0  0  0  0  0  0  0  0  0  0
   -0.7222    0.1612   -0.4815 C   0  0  2  0  0  0  0  0  0  0  0  0
   -1.3530    1.1902    0.3573 C   0  0  0  0  0  0  0  0  0  0  0  0
   -2.5654    1.8537    0.0469 N   0  0  0  0  0  0  0  0  0  0  0  0
   -0.8123    1.5627    1.4659 O   0  0  0  0  0  0  0  0  0  0  0  0
   -1.6095   -0.9652   -0.9142 C   0  0  0  0  0  0  0  0  0  0  0  0
   -2.0242   -2.0759   -0.0564 C   0  0  0  0  0  0  0  0  0  0  0  0
   -2.9715   -0.9288   -0.1724 C   0  0  0  0  0  0  0  0  0  0  0  0
    3.5895   -0.6393    0.0051 N   0  0  0  0  0  0  0  0  0  0  0  0
    4.9133   -0.6777    0.1928 O   0  0  0  0  0  0  0  0  0  0  0  0
    2.8422    2.1496    1.6294 H   0  0  0  0  0  0  0  0  0  0  0  0
    1.1095    1.7224    0.2973 H   0  0  0  0  0  0  0  0  0  0  0  0
    1.6549    0.9186   -1.2376 H   0  0  0  0  0  0  0  0  0  0  0  0
    0.4796   -0.7108    0.9336 H   0  0  0  0  0  0  0  0  0  0  0  0
   -0.4718    0.7240   -1.4549 H   0  0  0  0  0  0  0  0  0  0  0  0
   -2.9777    2.6018    0.6354 H   0  0  0  0  0  0  0  0  0  0  0  0
   -3.0660    1.5626   -0.8292 H   0  0  0  0  0  0  0  0  0  0  0  0
   -1.6914   -1.1421   -2.0054 H   0  0  0  0  0  0  0  0  0  0  0  0
   -2.3767   -3.0098   -0.5499 H   0  0  0  0  0  0  0  0  0  0  0  0
   -1.5670   -2.2609    0.9197 H   0  0  0  0  0  0  0  0  0  0  0  0
   -3.0738   -0.2952    0.7211 H   0  0  0  0  0  0  0  0  0  0  0  0
   -3.8608   -0.9901   -0.8149 H   0  0  0  0  0  0  0  0  0  0  0  0
    3.0857   -1.4550   -0.4508 H   0  0  0  0  0  0  0  0  0  0  0  0
    5.2434   -1.5649    0.4782 H   0  0  0  0  0  0  0  0  0  0  0  0
  1  2  2  3
  2  3  1  0
  3  4  1  0
  4  5  1  0
  5  6  1  0
  6  7  1  0
  6  8  2  0
  5  9  1  0
  9 10  1  0
 10 11  1  0
  2 12  1  0
 12 13  1  0
 11  9  1  0
  1 14  1  0
  3 15  1  0
  3 16  1  0
  4 17  1  0
  5 18  1  6
  7 19  1  0
  7 20  1  0
  9 21  1  0
 10 22  1  0
 10 23  1  0
 11 24  1  0
 11 25  1  0
 12 26  1  0
 13 27  1  0
M  END
$$$$

     RDKit          3D

 27 27  0  0  0  0  0  0  0  0999 V2000
    3.3454   -1.9585    0.0069 N   0  0  0  0  0  0  0  0  0  0  0  0
    2.7511   -0.8476    0.1354 C   0  0  0  0  0  0  0  0  0  0  0  0
    1.4295   -0.5689   -0.5002 C   0  0  0  0  0  0  0  0  0  0  0  0
    0.5837    0.0189    0.5252 N   0  0  0  0  0  0  0  0  0  0  0  0
   -0.6636    0.5135   -0.0912 C   0  0  2  0  0  0  0  0  0  0  0  0
   -0.9982    1.7270    0.6988 C   0  0  0  0  0  0  0  0  0  0  0  0
   -2.0879    2.5741    0.3427 N   0  0  0  0  0  0  0  0  0  0  0  0
   -0.3181    2.0246    1.6961 O   0  0  0  0  0  0  0  0  0  0  0  0
   -1.7150   -0.5161    0.2330 C   0  0  0  0  0  0  0  0  0  0  0  0
   -3.0970   -0.3229   -0.2940 C   0  0  0  0  0  0  0  0  0  0  0  0
   -2.2363   -1.5179   -0.6956 C   0  0  0  0  0  0  0  0  0  0  0  0
    3.3911    0.1900    0.9058 N   0  0  0  0  0  0  0  0  0  0  0  0
    4.7137    0.3636    0.8300 O   0  0  0  0  0  0  0  0  0  0  0  0
    3.0447   -2.7972   -0.5103 H   0  0  0  0  0  0  0  0  0  0  0  0
    0.9792   -1.5427   -0.7837 H   0  0  0  0  0  0  0  0  0  0  0  0
    1.5719    0.0776   -1.3714 H   0  0  0  0  0  0  0  0  0  0  0  0
    0.3951   -0.7010    1.2469 H   0  0  0  0  0  0  0  0  0  0  0  0
   -0.5520    0.7119   -1.1477 H   0  0  0  0  0  0  0  0  0  0  0  0
   -2.9571    2.6681    0.8605 H   0  0  0  0  0  0  0  0  0  0  0  0
   -1.9559    3.1362   -0.5349 H   0  0  0  0  0  0  0  0  0  0  0  0
   -1.6166   -0.8613    1.3204 H   0  0  0  0  0  0  0  0  0  0  0  0
   -3.2396    0.4214   -1.1080 H   0  0  0  0  0  0  0  0  0  0  0  0
   -3.9424   -0.5008    0.3848 H   0  0  0  0  0  0  0  0  0  0  0  0
   -2.5647   -2.5097   -0.2780 H   0  0  0  0  0  0  0  0  0  0  0  0
   -1.9297   -1.5988   -1.7485 H   0  0  0  0  0  0  0  0  0  0  0  0
    2.7655    0.7748    1.4962 H   0  0  0  0  0  0  0  0  0  0  0  0
    4.9030    1.0420    0.1244 H   0  0  0  0  0  0  0  0  0  0  0  0
  1  2  2  3
  2  3  1  0
  3  4  1  0
  4  5  1  0
  5  6  1  0
  6  7  1  0
  6  8  2  0
  5  9  1  0
  9 10  1  0
 10 11  1  0
  2 12  1  0
 12 13  1  0
 11  9  1  0
  1 14  1  0
  3 15  1  0
  3 16  1  0
  4 17  1  0
  5 18  1  6
  7 19  1  0
  7 20  1  0
  9 21  1  0
 10 22  1  0
 10 23  1  0
 11 24  1  0
 11 25  1  0
 12 26  1  0
 13 27  1  0
M  END
$$$$

     RDKit          3D

 27 27  0  0  0  0  0  0  0  0999 V2000
    3.2446    1.7978   -0.6480 N   0  0  0  0  0  0  0  0  0  0  0  0
    2.6819    0.7684   -0.1333 C   0  0  0  0  0  0  0  0  0  0  0  0
    1.4885    0.1962   -0.7608 C   0  0  0  0  0  0  0  0  0  0  0  0
    0.3313    0.2168    0.1192 N   0  0  0  0  0  0  0  0  0  0  0  0
   -0.8223   -0.3786   -0.4949 C   0  0  2  0  0  0  0  0  0  0  0  0
   -1.2973    0.3501   -1.7109 C   0  0  0  0  0  0  0  0  0  0  0  0
   -2.4205   -0.2581   -2.3736 N   0  0  0  0  0  0  0  0  0  0  0  0
   -0.8274    1.3885   -2.1782 O   0  0  0  0  0  0  0  0  0  0  0  0
   -1.9429   -0.6019    0.4604 C   0  0  0  0  0  0  0  0  0  0  0  0
   -2.5938    0.5010    1.1935 C   0  0  0  0  0  0  0  0  0  0  0  0
   -1.7134   -0.5313    1.9501 C   0  0  0  0  0  0  0  0  0  0  0  0
    3.2367    0.1851    1.0682 N   0  0  0  0  0  0  0  0  0  0  0  0
    4.4792    0.5576    1.4473 O   0  0  0  0  0  0  0  0  0  0  0  0
    2.8433    2.2139   -1.5088 H   0  0  0  0  0  0  0  0  0  0  0  0
    1.2507    0.7582   -1.6716 H   0  0  0  0  0  0  0  0  0  0  0  0
    1.7357   -0.8621   -1.0507 H   0  0  0  0  0  0  0  0  0  0  0  0
    0.5545   -0.3649    0.9791 H   0  0  0  0  0  0  0  0  0  0  0  0
   -0.4666   -1.3771   -0.8957 H   0  0  0  0  0  0  0  0  0  0  0  0
   -3.3599   -0.2172   -1.9303 H   0  0  0  0  0  0  0  0  0  0  0  0
   -2.3424   -0.7422   -3.2851 H   0  0  0  0  0  0  0  0  0  0  0  0
   -2.6339   -1.4363    0.1571 H   0  0  0  0  0  0  0  0  0  0  0  0
   -3.6829    0.4221    1.4159 H   0  0  0  0  0  0  0  0  0  0  0  0
   -2.1988    1.5225    1.2146 H   0  0  0  0  0  0  0  0  0  0  0  0
   -0.7769   -0.1615    2.3500 H   0  0  0  0  0  0  0  0  0  0  0  0
   -2.3019   -1.2482    2.5994 H   0  0  0  0  0  0  0  0  0  0  0  0
    2.6626   -0.5007    1.6001 H   0  0  0  0  0  0  0  0  0  0  0  0
    4.8716   -0.0894    2.0872 H   0  0  0  0  0  0  0  0  0  0  0  0
  1  2  2  3
  2  3  1  0
  3  4  1  0
  4  5  1  0
  5  6  1  0
  6  7  1  0
  6  8  2  0
  5  9  1  0
  9 10  1  0
 10 11  1  0
  2 12  1  0
 12 13  1  0
 11  9  1  0
  1 14  1  0
  3 15  1  0
  3 16  1  0
  4 17  1  0
  5 18  1  6
  7 19  1  0
  7 20  1  0
  9 21  1  0
 10 22  1  0
 10 23  1  0
 11 24  1  0
 11 25  1  0
 12 26  1  0
 13 27  1  0
M  END
$$$$
