
     RDKit          3D

 17 18  0  0  0  0  0  0  0  0999 V2000
    3.8651   -0.4131    0.5488 C   0  0  0  0  0  0  0  0  0  0  0  0
    3.3808    0.2168    1.6247 N   0  0  0  0  0  0  0  0  0  0  0  0
    2.1499    0.5714    1.4082 O   0  0  0  0  0  0  0  0  0  0  0  0
    1.8327    0.1826    0.2158 C   0  0  0  0  0  0  0  0  0  0  0  0
    0.5071    0.3868   -0.4378 C   0  0  0  0  0  0  0  0  0  0  0  0
   -0.2995   -0.7719   -0.1052 N   0  0  0  0  0  0  0  0  0  0  0  0
   -1.5671   -0.6293    0.0476 C   0  0  0  0  0  0  0  0  0  0  0  0
   -2.3809   -1.6566    0.3564 N   0  0  0  0  0  0  0  0  0  0  0  0
   -3.6023   -1.1762    0.4392 N   0  0  0  0  0  0  0  0  0  0  0  0
   -3.5840    0.1162    0.1932 N   0  0  0  0  0  0  0  0  0  0  0  0
   -2.3395    0.4691   -0.0497 N   0  0  0  0  0  0  0  0  0  0  0  0
    2.8719   -0.4344   -0.3535 N   0  0  0  0  0  0  0  0  0  0  0  0
    4.8477   -0.8250    0.4167 H   0  0  0  0  0  0  0  0  0  0  0  0
    0.6269    0.4532   -1.5417 H   0  0  0  0  0  0  0  0  0  0  0  0
    0.0455    1.2975   -0.0029 H   0  0  0  0  0  0  0  0  0  0  0  0
   -4.3826    0.7949    0.1787 H   0  0  0  0  0  0  0  0  0  0  0  0
   -1.9718    1.4180   -0.2804 H   0  0  0  0  0  0  0  0  0  0  0  0
  1  2  2  0
  2  3  1  0
  3  4  1  0
  4  5  1  0
  5  6  1  0
  6  7  2  3
  7  8  1  0
  8  9  2  0
  9 10  1  0
 10 11  1  0
  4 12  2  0
 12  1  1  0
 11  7  1  0
  1 13  1  0
  5 14  1  0
  5 15  1  0
 10 16  1  0
 11 17  1  0
M  END
$$$$

     RDKit          3D

 17 18  0  0  0  0  0  0  0  0999 V2000
    3.9054    0.1665    0.5918 C   0  0  0  0  0  0  0  0  0  0  0  0
    3.6813    0.5505   -0.6981 N   0  0  0  0  0  0  0  0  0  0  0  0
    2.4944    0.1718   -1.0599 O   0  0  0  0  0  0  0  0  0  0  0  0
    1.8932   -0.4573   -0.0706 C   0  0  0  0  0  0  0  0  0  0  0  0
    0.5151   -1.0484   -0.0848 C   0  0  0  0  0  0  0  0  0  0  0  0
   -0.4197   -0.0529    0.3505 N   0  0  0  0  0  0  0  0  0  0  0  0
   -1.6261    0.0471   -0.0294 C   0  0  0  0  0  0  0  0  0  0  0  0
   -2.3359   -0.7003   -0.8939 N   0  0  0  0  0  0  0  0  0  0  0  0
   -3.5701   -0.2084   -0.9729 N   0  0  0  0  0  0  0  0  0  0  0  0
   -3.6607    0.8391   -0.1748 N   0  0  0  0  0  0  0  0  0  0  0  0
   -2.4798    0.9945    0.3985 N   0  0  0  0  0  0  0  0  0  0  0  0
    2.7738   -0.4582    0.9540 N   0  0  0  0  0  0  0  0  0  0  0  0
    4.8105    0.3453    1.1629 H   0  0  0  0  0  0  0  0  0  0  0  0
    0.2967   -1.4679   -1.0729 H   0  0  0  0  0  0  0  0  0  0  0  0
    0.5098   -1.8790    0.6594 H   0  0  0  0  0  0  0  0  0  0  0  0
   -4.5275    1.4002   -0.0588 H   0  0  0  0  0  0  0  0  0  0  0  0
   -2.2604    1.7575    1.0886 H   0  0  0  0  0  0  0  0  0  0  0  0
  1  2  2  0
  2  3  1  0
  3  4  1  0
  4  5  1  0
  5  6  1  0
  6  7  2  3
  7  8  1  0
  8  9  2  0
  9 10  1  0
 10 11  1  0
  4 12  2  0
 12  1  1  0
 11  7  1  0
  1 13  1  0
  5 14  1  0
  5 15  1  0
 10 16  1  0
 11 17  1  0
M  END
$$$$

     RDKit          3D

 17 18  0  0  0  0  0  0  0  0999 V2000
    3.8544   -0.4007    0.3151 C   0  0  0  0  0  0  0  0  0  0  0  0
    4.0512    0.9191    0.1441 N   0  0  0  0  0  0  0  0  0  0  0  0
    2.8928    1.4966    0.0234 O   0  0  0  0  0  0  0  0  0  0  0  0
    1.9250    0.6239    0.1056 C   0  0  0  0  0  0  0  0  0  0  0  0
    0.4713    0.9294    0.0108 C   0  0  0  0  0  0  0  0  0  0  0  0
   -0.2841   -0.2948    0.1488 N   0  0  0  0  0  0  0  0  0  0  0  0
   -1.5734   -0.2289    0.1569 C   0  0  0  0  0  0  0  0  0  0  0  0
   -2.3543    0.8618    0.0508 N   0  0  0  0  0  0  0  0  0  0  0  0
   -3.6446    0.5062    0.1034 N   0  0  0  0  0  0  0  0  0  0  0  0
   -3.6902   -0.8090    0.2428 N   0  0  0  0  0  0  0  0  0  0  0  0
   -2.4354   -1.2659    0.2764 N   0  0  0  0  0  0  0  0  0  0  0  0
    2.5204   -0.5674    0.2885 N   0  0  0  0  0  0  0  0  0  0  0  0
    4.5727   -1.1982    0.4493 H   0  0  0  0  0  0  0  0  0  0  0  0
    0.1856    1.6712    0.8059 H   0  0  0  0  0  0  0  0  0  0  0  0
    0.1983    1.3783   -0.9664 H   0  0  0  0  0  0  0  0  0  0  0  0
   -4.5711   -1.3663    0.3119 H   0  0  0  0  0  0  0  0  0  0  0  0
   -2.1187   -2.2553    0.3772 H   0  0  0  0  0  0  0  0  0  0  0  0
  1  2  2  0
  2  3  1  0
  3  4  1  0
  4  5  1  0
  5  6  1  0
  6  7  2  3
  7  8  1  0
  8  9  2  0
  9 10  1  0
 10 11  1  0
  4 12  2  0
 12  1  1  0
 11  7  1  0
  1 13  1  0
  5 14  1  0
  5 15  1  0
 10 16  1  0
 11 17  1  0
M  END
$$$$

     RDKit          3D

 17 18  0  0  0  0  0  0  0  0999 V2000
   -2.9936    0.9119   -0.0723 C   0  0  0  0  0  0  0  0  0  0  0  0
   -3.4631   -0.2194   -0.6314 N   0  0  0  0  0  0  0  0  0  0  0  0
   -2.5879   -1.1410   -0.4757 O   0  0  0  0  0  0  0  0  0  0  0  0
   -1.5525   -0.6747    0.1639 C   0  0  0  0  0  0  0  0  0  0  0  0
   -0.3011   -1.4167    0.5550 C   0  0  0  0  0  0  0  0  0  0  0  0
    0.6078   -0.5442    1.2521 N   0  0  0  0  0  0  0  0  0  0  0  0
    1.5177    0.1531    0.6172 C   0  0  0  0  0  0  0  0  0  0  0  0
    2.4029    0.9853    1.1637 N   0  0  0  0  0  0  0  0  0  0  0  0
    3.1306    1.4828    0.2007 N   0  0  0  0  0  0  0  0  0  0  0  0
    2.7519    1.0023   -0.9762 N   0  0  0  0  0  0  0  0  0  0  0  0
    1.7521    0.1792   -0.7089 N   0  0  0  0  0  0  0  0  0  0  0  0
   -1.7795    0.6018    0.4270 N   0  0  0  0  0  0  0  0  0  0  0  0
   -3.5283    1.8522   -0.0571 H   0  0  0  0  0  0  0  0  0  0  0  0
    0.1671   -1.7372   -0.3964 H   0  0  0  0  0  0  0  0  0  0  0  0
   -0.5538   -2.3360    1.1208 H   0  0  0  0  0  0  0  0  0  0  0  0
    3.1844    1.2525   -1.8931 H   0  0  0  0  0  0  0  0  0  0  0  0
    1.2453   -0.3519   -1.4358 H   0  0  0  0  0  0  0  0  0  0  0  0
  1  2  2  0
  2  3  1  0
  3  4  1  0
  4  5  1  0
  5  6  1  0
  6  7  2  3
  7  8  1  0
  8  9  2  0
  9 10  1  0
 10 11  1  0
  4 12  2  0
 12  1  1  0
 11  7  1  0
  1 13  1  0
  5 14  1  0
  5 15  1  0
 10 16  1  0
 11 17  1  0
M  END
$$$$

     RDKit          3D

 17 18  0  0  0  0  0  0  0  0999 V2000
    3.0658    0.5639    0.2655 C   0  0  0  0  0  0  0  0  0  0  0  0
    3.3368   -0.1590   -0.8539 N   0  0  0  0  0  0  0  0  0  0  0  0
    2.3851   -1.0228   -1.0495 O   0  0  0  0  0  0  0  0  0  0  0  0
    1.4749   -0.9165   -0.1056 C   0  0  0  0  0  0  0  0  0  0  0  0
    0.2248   -1.7409    0.0136 C   0  0  0  0  0  0  0  0  0  0  0  0
   -0.7974   -1.0082   -0.7355 N   0  0  0  0  0  0  0  0  0  0  0  0
   -1.3724   -0.0111   -0.1240 C   0  0  0  0  0  0  0  0  0  0  0  0
   -1.1502    0.4449    1.1256 N   0  0  0  0  0  0  0  0  0  0  0  0
   -1.9549    1.4739    1.3344 N   0  0  0  0  0  0  0  0  0  0  0  0
   -2.6735    1.6604    0.2275 N   0  0  0  0  0  0  0  0  0  0  0  0
   -2.3174    0.7524   -0.6645 N   0  0  0  0  0  0  0  0  0  0  0  0
    1.8963    0.0656    0.7082 N   0  0  0  0  0  0  0  0  0  0  0  0
    3.6565    1.3592    0.7013 H   0  0  0  0  0  0  0  0  0  0  0  0
    0.3825   -2.7585   -0.3877 H   0  0  0  0  0  0  0  0  0  0  0  0
   -0.0571   -1.7405    1.0956 H   0  0  0  0  0  0  0  0  0  0  0  0
   -3.4039    2.4081    0.0879 H   0  0  0  0  0  0  0  0  0  0  0  0
   -2.6958    0.6290   -1.6387 H   0  0  0  0  0  0  0  0  0  0  0  0
  1  2  2  0
  2  3  1  0
  3  4  1  0
  4  5  1  0
  5  6  1  0
  6  7  2  3
  7  8  1  0
  8  9  2  0
  9 10  1  0
 10 11  1  0
  4 12  2  0
 12  1  1  0
 11  7  1  0
  1 13  1  0
  5 14  1  0
  5 15  1  0
 10 16  1  0
 11 17  1  0
M  END
$$$$

     RDKit          3D

 17 18  0  0  0  0  0  0  0  0999 V2000
   -3.1044    0.2104    1.5901 C   0  0  0  0  0  0  0  0  0  0  0  0
   -2.1453    1.0041    2.0531 N   0  0  0  0  0  0  0  0  0  0  0  0
   -1.0083    0.5162    1.6538 O   0  0  0  0  0  0  0  0  0  0  0  0
   -1.1687   -0.5553    0.9535 C   0  0  0  0  0  0  0  0  0  0  0  0
   -0.1794   -1.4445    0.2977 C   0  0  0  0  0  0  0  0  0  0  0  0
    1.1714   -1.0401    0.4789 N   0  0  0  0  0  0  0  0  0  0  0  0
    1.7948   -0.1662   -0.2137 C   0  0  0  0  0  0  0  0  0  0  0  0
    3.0616    0.2685   -0.1063 N   0  0  0  0  0  0  0  0  0  0  0  0
    3.2689    1.1907   -1.0506 N   0  0  0  0  0  0  0  0  0  0  0  0
    2.1746    1.3526   -1.7506 N   0  0  0  0  0  0  0  0  0  0  0  0
    1.2602    0.5166   -1.2380 N   0  0  0  0  0  0  0  0  0  0  0  0
   -2.4924   -0.7775    0.8939 N   0  0  0  0  0  0  0  0  0  0  0  0
   -4.1720    0.3405    1.7473 H   0  0  0  0  0  0  0  0  0  0  0  0
   -0.4013   -1.3843   -0.8078 H   0  0  0  0  0  0  0  0  0  0  0  0
   -0.4022   -2.4709    0.5922 H   0  0  0  0  0  0  0  0  0  0  0  0
    2.0505    2.0120   -2.5544 H   0  0  0  0  0  0  0  0  0  0  0  0
    0.2920    0.4272   -1.5944 H   0  0  0  0  0  0  0  0  0  0  0  0
  1  2  2  0
  2  3  1  0
  3  4  1  0
  4  5  1  0
  5  6  1  0
  6  7  2  3
  7  8  1  0
  8  9  2  0
  9 10  1  0
 10 11  1  0
  4 12  2  0
 12  1  1  0
 11  7  1  0
  1 13  1  0
  5 14  1  0
  5 15  1  0
 10 16  1  0
 11 17  1  0
M  END
$$$$

     RDKit          3D

 17 18  0  0  0  0  0  0  0  0999 V2000
   -4.1398    0.1435    0.2677 C   0  0  0  0  0  0  0  0  0  0  0  0
   -3.7390    0.7651   -0.8602 N   0  0  0  0  0  0  0  0  0  0  0  0
   -2.4248    0.6946   -0.9511 O   0  0  0  0  0  0  0  0  0  0  0  0
   -1.9503    0.0504    0.0747 C   0  0  0  0  0  0  0  0  0  0  0  0
   -0.5565   -0.2970    0.4447 C   0  0  0  0  0  0  0  0  0  0  0  0
    0.3930    0.1809   -0.5255 N   0  0  0  0  0  0  0  0  0  0  0  0
    1.6448   -0.0172   -0.2861 C   0  0  0  0  0  0  0  0  0  0  0  0
    2.2129   -0.6341    0.7885 N   0  0  0  0  0  0  0  0  0  0  0  0
    3.5126   -0.6442    0.6784 N   0  0  0  0  0  0  0  0  0  0  0  0
    3.7957   -0.0379   -0.4612 N   0  0  0  0  0  0  0  0  0  0  0  0
    2.6803    0.3539   -1.0689 N   0  0  0  0  0  0  0  0  0  0  0  0
   -3.0025   -0.3027    0.8478 N   0  0  0  0  0  0  0  0  0  0  0  0
   -5.1502    0.0241    0.6344 H   0  0  0  0  0  0  0  0  0  0  0  0
   -0.3081    0.1785    1.4146 H   0  0  0  0  0  0  0  0  0  0  0  0
   -0.4160   -1.4137    0.4969 H   0  0  0  0  0  0  0  0  0  0  0  0
    4.7804    0.1053   -0.8210 H   0  0  0  0  0  0  0  0  0  0  0  0
    2.6675    0.8505   -1.9779 H   0  0  0  0  0  0  0  0  0  0  0  0
  1  2  2  0
  2  3  1  0
  3  4  1  0
  4  5  1  0
  5  6  1  0
  6  7  2  3
  7  8  1  0
  8  9  2  0
  9 10  1  0
 10 11  1  0
  4 12  2  0
 12  1  1  0
 11  7  1  0
  1 13  1  0
  5 14  1  0
  5 15  1  0
 10 16  1  0
 11 17  1  0
M  END
$$$$

     RDKit          3D

 17 18  0  0  0  0  0  0  0  0999 V2000
   -3.9917    0.4168   -0.4927 C   0  0  0  0  0  0  0  0  0  0  0  0
   -3.7858   -0.7913    0.0994 N   0  0  0  0  0  0  0  0  0  0  0  0
   -2.5094   -1.0297    0.1571 O   0  0  0  0  0  0  0  0  0  0  0  0
   -1.8527   -0.0351   -0.3699 C   0  0  0  0  0  0  0  0  0  0  0  0
   -0.3894    0.1703   -0.5423 C   0  0  0  0  0  0  0  0  0  0  0  0
    0.3656   -0.9504   -0.0201 N   0  0  0  0  0  0  0  0  0  0  0  0
    1.6194   -0.7768    0.1958 C   0  0  0  0  0  0  0  0  0  0  0  0
    2.5086   -1.6775    0.6767 N   0  0  0  0  0  0  0  0  0  0  0  0
    3.6986   -1.1022    0.7503 N   0  0  0  0  0  0  0  0  0  0  0  0
    3.5921    0.1589    0.3235 N   0  0  0  0  0  0  0  0  0  0  0  0
    2.3306    0.3417   -0.0082 N   0  0  0  0  0  0  0  0  0  0  0  0
   -2.7599    0.8709   -0.7780 N   0  0  0  0  0  0  0  0  0  0  0  0
   -4.9566    0.8686   -0.6717 H   0  0  0  0  0  0  0  0  0  0  0  0
   -0.0970    0.3421   -1.5893 H   0  0  0  0  0  0  0  0  0  0  0  0
   -0.1204    1.0447    0.1169 H   0  0  0  0  0  0  0  0  0  0  0  0
    4.3591    0.8719    0.2614 H   0  0  0  0  0  0  0  0  0  0  0  0
    1.9889    1.2772   -0.3816 H   0  0  0  0  0  0  0  0  0  0  0  0
  1  2  2  0
  2  3  1  0
  3  4  1  0
  4  5  1  0
  5  6  1  0
  6  7  2  3
  7  8  1  0
  8  9  2  0
  9 10  1  0
 10 11  1  0
  4 12  2  0
 12  1  1  0
 11  7  1  0
  1 13  1  0
  5 14  1  0
  5 15  1  0
 10 16  1  0
 11 17  1  0
M  END
$$$$
