
     RDKit          3D

 27 28  0  0  0  0  0  0  0  0999 V2000
    0.6677    1.4065    2.0606 O   0  0  0  0  0  0  0  0  0  0  0  0
    0.5836    0.8384    0.9391 C   0  0  0  0  0  0  0  0  0  0  0  0
    1.6974    1.0014   -0.0358 C   0  0  1  0  0  0  0  0  0  0  0  0
    2.9916    0.5374    0.5612 C   0  0  0  0  0  0  0  0  0  0  0  0
    3.4280   -0.5456   -0.4028 C   0  0  0  0  0  0  0  0  0  0  0  0
    2.1278   -0.9133   -0.9788 N   0  0  0  0  0  0  0  0  0  0  0  0
    1.4632    0.2266   -1.1307 O   0  0  0  0  0  0  0  0  0  0  0  0
   -0.5383    0.0558    0.5851 N   0  0  0  0  0  0  0  0  0  0  0  0
   -1.0099   -0.7219   -0.5552 C   0  0  0  0  0  0  0  0  0  0  0  0
   -2.4220   -0.6151    0.0299 C   0  0  0  0  0  0  0  0  0  0  0  0
   -3.1675    0.5250   -0.6041 C   0  0  0  0  0  0  0  0  0  0  0  0
   -3.2667    0.3255   -1.9667 O   0  0  0  0  0  0  0  0  0  0  0  0
   -1.7568   -0.2734    1.3481 C   0  0  0  0  0  0  0  0  0  0  0  0
    1.7748    2.1038   -0.3229 H   0  0  0  0  0  0  0  0  0  0  0  0
    2.7873    0.1293    1.5748 H   0  0  0  0  0  0  0  0  0  0  0  0
    3.7374    1.3576    0.6231 H   0  0  0  0  0  0  0  0  0  0  0  0
    3.8516   -1.3843    0.1992 H   0  0  0  0  0  0  0  0  0  0  0  0
    4.1089   -0.1582   -1.1647 H   0  0  0  0  0  0  0  0  0  0  0  0
    1.6869   -1.6420   -0.3989 H   0  0  0  0  0  0  0  0  0  0  0  0
   -0.8902   -0.1991   -1.5075 H   0  0  0  0  0  0  0  0  0  0  0  0
   -0.6949   -1.7836   -0.5664 H   0  0  0  0  0  0  0  0  0  0  0  0
   -2.9864   -1.5475    0.0542 H   0  0  0  0  0  0  0  0  0  0  0  0
   -4.1235    0.7437   -0.1256 H   0  0  0  0  0  0  0  0  0  0  0  0
   -2.5347    1.4502   -0.4664 H   0  0  0  0  0  0  0  0  0  0  0  0
   -3.8447   -0.4318   -2.2112 H   0  0  0  0  0  0  0  0  0  0  0  0
   -1.5429   -1.1196    2.0046 H   0  0  0  0  0  0  0  0  0  0  0  0
   -2.1277    0.6342    1.8317 H   0  0  0  0  0  0  0  0  0  0  0  0
  1  2  2  0
  2  3  1  0
  3  4  1  0
  4  5  1  0
  5  6  1  0
  6  7  1  0
  2  8  1  0
  8  9  1  0
  9 10  1  0
 10 11  1  0
 11 12  1  0
 10 13  1  0
  7  3  1  0
 13  8  1  0
  3 14  1  6
  4 15  1  0
  4 16  1  0
  5 17  1  0
  5 18  1  0
  6 19  1  0
  9 20  1  0
  9 21  1  0
 10 22  1  0
 11 23  1  0
 11 24  1  0
 12 25  1  0
 13 26  1  0
 13 27  1  0
M  END
$$$$

     RDKit          3D

 27 28  0  0  0  0  0  0  0  0999 V2000
   -0.8041    2.1682    0.9725 O   0  0  0  0  0  0  0  0  0  0  0  0
   -0.6551    1.1723    0.2202 C   0  0  0  0  0  0  0  0  0  0  0  0
   -1.8852    0.6575   -0.4668 C   0  0  1  0  0  0  0  0  0  0  0  0
   -2.2208   -0.6984    0.1211 C   0  0  0  0  0  0  0  0  0  0  0  0
   -3.7305   -0.7001    0.1856 C   0  0  0  0  0  0  0  0  0  0  0  0
   -4.0735    0.6127   -0.3089 N   0  0  0  0  0  0  0  0  0  0  0  0
   -3.0001    1.4001   -0.1347 O   0  0  0  0  0  0  0  0  0  0  0  0
    0.6068    0.5640    0.0276 N   0  0  0  0  0  0  0  0  0  0  0  0
    1.9256    0.8394    0.5457 C   0  0  0  0  0  0  0  0  0  0  0  0
    2.5418   -0.0927   -0.4461 C   0  0  0  0  0  0  0  0  0  0  0  0
    3.4309   -1.1691    0.1562 C   0  0  0  0  0  0  0  0  0  0  0  0
    4.4912   -0.5897    0.8570 O   0  0  0  0  0  0  0  0  0  0  0  0
    1.1254   -0.5538   -0.7366 C   0  0  0  0  0  0  0  0  0  0  0  0
   -1.7188    0.5616   -1.5515 H   0  0  0  0  0  0  0  0  0  0  0  0
   -1.8119   -1.5195   -0.4960 H   0  0  0  0  0  0  0  0  0  0  0  0
   -1.7671   -0.7562    1.1350 H   0  0  0  0  0  0  0  0  0  0  0  0
   -4.0478   -0.8668    1.2293 H   0  0  0  0  0  0  0  0  0  0  0  0
   -4.1003   -1.4937   -0.5000 H   0  0  0  0  0  0  0  0  0  0  0  0
   -4.3600    0.5570   -1.3075 H   0  0  0  0  0  0  0  0  0  0  0  0
    2.2088    1.8961    0.3338 H   0  0  0  0  0  0  0  0  0  0  0  0
    2.0189    0.5412    1.6134 H   0  0  0  0  0  0  0  0  0  0  0  0
    3.0480    0.3822   -1.3100 H   0  0  0  0  0  0  0  0  0  0  0  0
    3.8820   -1.7840   -0.6414 H   0  0  0  0  0  0  0  0  0  0  0  0
    2.8540   -1.8091    0.8547 H   0  0  0  0  0  0  0  0  0  0  0  0
    4.1900   -0.2728    1.7238 H   0  0  0  0  0  0  0  0  0  0  0  0
    0.9483   -1.5192   -0.2583 H   0  0  0  0  0  0  0  0  0  0  0  0
    0.9036   -0.4727   -1.8181 H   0  0  0  0  0  0  0  0  0  0  0  0
  1  2  2  0
  2  3  1  0
  3  4  1  0
  4  5  1  0
  5  6  1  0
  6  7  1  0
  2  8  1  0
  8  9  1  0
  9 10  1  0
 10 11  1  0
 11 12  1  0
 10 13  1  0
  7  3  1  0
 13  8  1  0
  3 14  1  6
  4 15  1  0
  4 16  1  0
  5 17  1  0
  5 18  1  0
  6 19  1  0
  9 20  1  0
  9 21  1  0
 10 22  1  0
 11 23  1  0
 11 24  1  0
 12 25  1  0
 13 26  1  0
 13 27  1  0
M  END
$$$$

     RDKit          3D

 27 28  0  0  0  0  0  0  0  0999 V2000
    1.1097    2.3776    0.1075 O   0  0  0  0  0  0  0  0  0  0  0  0
    0.7992    1.1841    0.3570 C   0  0  0  0  0  0  0  0  0  0  0  0
    1.8452    0.3412    1.0180 C   0  0  1  0  0  0  0  0  0  0  0  0
    2.1977   -0.8200    0.0826 C   0  0  0  0  0  0  0  0  0  0  0  0
    3.7295   -0.7302    0.1191 C   0  0  0  0  0  0  0  0  0  0  0  0
    3.8875    0.7231    0.2797 N   0  0  0  0  0  0  0  0  0  0  0  0
    3.0036    1.0329    1.2484 O   0  0  0  0  0  0  0  0  0  0  0  0
   -0.4663    0.6570    0.0347 N   0  0  0  0  0  0  0  0  0  0  0  0
   -1.6635    1.1710   -0.5828 C   0  0  0  0  0  0  0  0  0  0  0  0
   -2.4343    0.2336    0.3252 C   0  0  0  0  0  0  0  0  0  0  0  0
   -3.6418   -0.3758   -0.3400 C   0  0  0  0  0  0  0  0  0  0  0  0
   -3.3294   -1.1161   -1.4528 O   0  0  0  0  0  0  0  0  0  0  0  0
   -1.1574   -0.6029    0.1586 C   0  0  0  0  0  0  0  0  0  0  0  0
    1.4785   -0.0844    1.9629 H   0  0  0  0  0  0  0  0  0  0  0  0
    1.8294   -1.7746    0.4610 H   0  0  0  0  0  0  0  0  0  0  0  0
    1.8871   -0.5850   -0.9556 H   0  0  0  0  0  0  0  0  0  0  0  0
    4.1877   -1.1018   -0.7971 H   0  0  0  0  0  0  0  0  0  0  0  0
    4.0586   -1.2309    1.0457 H   0  0  0  0  0  0  0  0  0  0  0  0
    3.5747    1.1730   -0.6127 H   0  0  0  0  0  0  0  0  0  0  0  0
   -1.8681    2.2456   -0.4365 H   0  0  0  0  0  0  0  0  0  0  0  0
   -1.7627    0.8273   -1.6488 H   0  0  0  0  0  0  0  0  0  0  0  0
   -2.5873    0.6148    1.3326 H   0  0  0  0  0  0  0  0  0  0  0  0
   -4.3210    0.4603   -0.6141 H   0  0  0  0  0  0  0  0  0  0  0  0
   -4.1461   -1.0086    0.4123 H   0  0  0  0  0  0  0  0  0  0  0  0
   -4.1265   -1.6440   -1.7109 H   0  0  0  0  0  0  0  0  0  0  0  0
   -0.9086   -1.2159    1.0289 H   0  0  0  0  0  0  0  0  0  0  0  0
   -1.1756   -1.1181   -0.8229 H   0  0  0  0  0  0  0  0  0  0  0  0
  1  2  2  0
  2  3  1  0
  3  4  1  0
  4  5  1  0
  5  6  1  0
  6  7  1  0
  2  8  1  0
  8  9  1  0
  9 10  1  0
 10 11  1  0
 11 12  1  0
 10 13  1  0
  7  3  1  0
 13  8  1  0
  3 14  1  1
  4 15  1  0
  4 16  1  0
  5 17  1  0
  5 18  1  0
  6 19  1  0
  9 20  1  0
  9 21  1  0
 10 22  1  0
 11 23  1  0
 11 24  1  0
 12 25  1  0
 13 26  1  0
 13 27  1  0
M  END
$$$$

     RDKit          3D

 27 28  0  0  0  0  0  0  0  0999 V2000
   -1.2200   -1.8604   -1.2601 O   0  0  0  0  0  0  0  0  0  0  0  0
   -0.9166   -1.0426   -0.3453 C   0  0  0  0  0  0  0  0  0  0  0  0
   -1.9233   -0.6150    0.6274 C   0  0  1  0  0  0  0  0  0  0  0  0
   -2.2867    0.8459    0.5051 C   0  0  0  0  0  0  0  0  0  0  0  0
   -3.3502    0.8050   -0.5658 C   0  0  0  0  0  0  0  0  0  0  0  0
   -3.6742   -0.5997   -0.7027 N   0  0  0  0  0  0  0  0  0  0  0  0
   -3.1518   -1.2291    0.3647 O   0  0  0  0  0  0  0  0  0  0  0  0
    0.3989   -0.5720   -0.3027 N   0  0  0  0  0  0  0  0  0  0  0  0
    1.6596   -0.7292   -1.0380 C   0  0  0  0  0  0  0  0  0  0  0  0
    2.3693   -0.4574    0.2664 C   0  0  0  0  0  0  0  0  0  0  0  0
    3.5466    0.4732    0.1770 C   0  0  0  0  0  0  0  0  0  0  0  0
    4.5338    0.0038   -0.6634 O   0  0  0  0  0  0  0  0  0  0  0  0
    1.1083    0.3447    0.5663 C   0  0  0  0  0  0  0  0  0  0  0  0
   -1.6205   -0.8100    1.6742 H   0  0  0  0  0  0  0  0  0  0  0  0
   -1.4281    1.4759    0.2166 H   0  0  0  0  0  0  0  0  0  0  0  0
   -2.7362    1.1774    1.4668 H   0  0  0  0  0  0  0  0  0  0  0  0
   -2.9766    1.2126   -1.5255 H   0  0  0  0  0  0  0  0  0  0  0  0
   -4.2318    1.4081   -0.2510 H   0  0  0  0  0  0  0  0  0  0  0  0
   -4.7145   -0.7267   -0.6443 H   0  0  0  0  0  0  0  0  0  0  0  0
    1.7573   -1.7583   -1.4340 H   0  0  0  0  0  0  0  0  0  0  0  0
    1.7935    0.0500   -1.8192 H   0  0  0  0  0  0  0  0  0  0  0  0
    2.5032   -1.3641    0.8651 H   0  0  0  0  0  0  0  0  0  0  0  0
    3.9745    0.5571    1.1973 H   0  0  0  0  0  0  0  0  0  0  0  0
    3.2018    1.4871   -0.1042 H   0  0  0  0  0  0  0  0  0  0  0  0
    5.4144    0.2535   -0.2990 H   0  0  0  0  0  0  0  0  0  0  0  0
    0.8031    0.3298    1.6271 H   0  0  0  0  0  0  0  0  0  0  0  0
    1.1661    1.3405    0.0953 H   0  0  0  0  0  0  0  0  0  0  0  0
  1  2  2  0
  2  3  1  0
  3  4  1  0
  4  5  1  0
  5  6  1  0
  6  7  1  0
  2  8  1  0
  8  9  1  0
  9 10  1  0
 10 11  1  0
 11 12  1  0
 10 13  1  0
  7  3  1  0
 13  8  1  0
  3 14  1  1
  4 15  1  0
  4 16  1  0
  5 17  1  0
  5 18  1  0
  6 19  1  0
  9 20  1  0
  9 21  1  0
 10 22  1  0
 11 23  1  0
 11 24  1  0
 12 25  1  0
 13 26  1  0
 13 27  1  0
M  END
$$$$

     RDKit          3D

 27 28  0  0  0  0  0  0  0  0999 V2000
   -0.8839   -1.0803   -2.1157 O   0  0  0  0  0  0  0  0  0  0  0  0
   -0.7283   -0.7998   -0.8966 C   0  0  0  0  0  0  0  0  0  0  0  0
   -1.9630   -0.6781   -0.0973 C   0  0  1  0  0  0  0  0  0  0  0  0
   -2.1810    0.7098    0.4500 C   0  0  0  0  0  0  0  0  0  0  0  0
   -3.6703    0.5645    0.8000 C   0  0  0  0  0  0  0  0  0  0  0  0
   -4.1287   -0.2821   -0.2469 N   0  0  0  0  0  0  0  0  0  0  0  0
   -3.1061   -0.8937   -0.8224 O   0  0  0  0  0  0  0  0  0  0  0  0
    0.5688   -0.6288   -0.4033 N   0  0  0  0  0  0  0  0  0  0  0  0
    1.2442   -0.3147    0.8578 C   0  0  0  0  0  0  0  0  0  0  0  0
    2.3046    0.3636    0.0139 C   0  0  0  0  0  0  0  0  0  0  0  0
    3.7079    0.2222    0.5409 C   0  0  0  0  0  0  0  0  0  0  0  0
    4.5626    0.8888   -0.3290 O   0  0  0  0  0  0  0  0  0  0  0  0
    1.8934   -0.6985   -0.9888 C   0  0  0  0  0  0  0  0  0  0  0  0
   -1.9573   -1.3727    0.7600 H   0  0  0  0  0  0  0  0  0  0  0  0
   -2.0821    1.4851   -0.3131 H   0  0  0  0  0  0  0  0  0  0  0  0
   -1.6648    0.9099    1.3866 H   0  0  0  0  0  0  0  0  0  0  0  0
   -3.6830   -0.0301    1.7486 H   0  0  0  0  0  0  0  0  0  0  0  0
   -4.1686    1.5303    0.8870 H   0  0  0  0  0  0  0  0  0  0  0  0
   -4.6374    0.2793   -0.9802 H   0  0  0  0  0  0  0  0  0  0  0  0
    1.6458   -1.2489    1.3265 H   0  0  0  0  0  0  0  0  0  0  0  0
    0.6857    0.3395    1.5289 H   0  0  0  0  0  0  0  0  0  0  0  0
    2.0175    1.3570   -0.3412 H   0  0  0  0  0  0  0  0  0  0  0  0
    3.7983    0.7086    1.5270 H   0  0  0  0  0  0  0  0  0  0  0  0
    3.9677   -0.8377    0.6224 H   0  0  0  0  0  0  0  0  0  0  0  0
    4.1186    1.5950   -0.8353 H   0  0  0  0  0  0  0  0  0  0  0  0
    1.9570   -0.4042   -2.0434 H   0  0  0  0  0  0  0  0  0  0  0  0
    2.3824   -1.6843   -0.7476 H   0  0  0  0  0  0  0  0  0  0  0  0
  1  2  2  0
  2  3  1  0
  3  4  1  0
  4  5  1  0
  5  6  1  0
  6  7  1  0
  2  8  1  0
  8  9  1  0
  9 10  1  0
 10 11  1  0
 11 12  1  0
 10 13  1  0
  7  3  1  0
 13  8  1  0
  3 14  1  1
  4 15  1  0
  4 16  1  0
  5 17  1  0
  5 18  1  0
  6 19  1  0
  9 20  1  0
  9 21  1  0
 10 22  1  0
 11 23  1  0
 11 24  1  0
 12 25  1  0
 13 26  1  0
 13 27  1  0
M  END
$$$$

     RDKit          3D

 27 28  0  0  0  0  0  0  0  0999 V2000
   -0.4779   -2.4850    0.8050 O   0  0  0  0  0  0  0  0  0  0  0  0
   -0.4396   -1.4899    0.0374 C   0  0  0  0  0  0  0  0  0  0  0  0
   -1.7067   -0.9147   -0.4226 C   0  0  1  0  0  0  0  0  0  0  0  0
   -2.5124   -0.3153    0.7174 C   0  0  0  0  0  0  0  0  0  0  0  0
   -3.4068    0.6492   -0.0745 C   0  0  0  0  0  0  0  0  0  0  0  0
   -2.7565    0.7378   -1.3499 N   0  0  0  0  0  0  0  0  0  0  0  0
   -1.5532    0.1712   -1.2599 O   0  0  0  0  0  0  0  0  0  0  0  0
    0.8065   -0.9414   -0.3702 N   0  0  0  0  0  0  0  0  0  0  0  0
    1.2158    0.1633   -1.2172 C   0  0  0  0  0  0  0  0  0  0  0  0
    2.5022    0.2351   -0.3925 C   0  0  0  0  0  0  0  0  0  0  0  0
    2.2826    1.1589    0.7834 C   0  0  0  0  0  0  0  0  0  0  0  0
    3.4563    1.2323    1.5469 O   0  0  0  0  0  0  0  0  0  0  0  0
    2.2149   -1.2072   -0.1482 C   0  0  0  0  0  0  0  0  0  0  0  0
   -2.3406   -1.6812   -0.9128 H   0  0  0  0  0  0  0  0  0  0  0  0
   -3.0892   -1.0949    1.2206 H   0  0  0  0  0  0  0  0  0  0  0  0
   -1.8282    0.2487    1.3611 H   0  0  0  0  0  0  0  0  0  0  0  0
   -3.5294    1.5974    0.4515 H   0  0  0  0  0  0  0  0  0  0  0  0
   -4.4208    0.1694   -0.1861 H   0  0  0  0  0  0  0  0  0  0  0  0
   -2.6727    1.7115   -1.7179 H   0  0  0  0  0  0  0  0  0  0  0  0
    0.6040    1.0626   -1.1844 H   0  0  0  0  0  0  0  0  0  0  0  0
    1.4369   -0.2419   -2.2409 H   0  0  0  0  0  0  0  0  0  0  0  0
    3.3919    0.4812   -0.9728 H   0  0  0  0  0  0  0  0  0  0  0  0
    2.1276    2.1786    0.3624 H   0  0  0  0  0  0  0  0  0  0  0  0
    1.4103    0.8939    1.3811 H   0  0  0  0  0  0  0  0  0  0  0  0
    4.2260    1.1137    0.9169 H   0  0  0  0  0  0  0  0  0  0  0  0
    2.5958   -1.8225   -0.9959 H   0  0  0  0  0  0  0  0  0  0  0  0
    2.4633   -1.6106    0.8498 H   0  0  0  0  0  0  0  0  0  0  0  0
  1  2  2  0
  2  3  1  0
  3  4  1  0
  4  5  1  0
  5  6  1  0
  6  7  1  0
  2  8  1  0
  8  9  1  0
  9 10  1  0
 10 11  1  0
 11 12  1  0
 10 13  1  0
  7  3  1  0
 13  8  1  0
  3 14  1  6
  4 15  1  0
  4 16  1  0
  5 17  1  0
  5 18  1  0
  6 19  1  0
  9 20  1  0
  9 21  1  0
 10 22  1  0
 11 23  1  0
 11 24  1  0
 12 25  1  0
 13 26  1  0
 13 27  1  0
M  END
$$$$

     RDKit          3D

 27 28  0  0  0  0  0  0  0  0999 V2000
   -0.9980    2.3259   -0.9967 O   0  0  0  0  0  0  0  0  0  0  0  0
   -0.8219    1.1029   -0.7845 C   0  0  0  0  0  0  0  0  0  0  0  0
   -1.9873    0.1688   -0.6768 C   0  0  1  0  0  0  0  0  0  0  0  0
   -1.9909   -0.5482    0.6495 C   0  0  0  0  0  0  0  0  0  0  0  0
   -3.4371   -0.4139    1.0616 C   0  0  0  0  0  0  0  0  0  0  0  0
   -4.0304    0.4679    0.1191 N   0  0  0  0  0  0  0  0  0  0  0  0
   -3.1845    0.7918   -0.8312 O   0  0  0  0  0  0  0  0  0  0  0  0
    0.4927    0.6160   -0.6478 N   0  0  0  0  0  0  0  0  0  0  0  0
    1.0996   -0.6542   -0.4095 C   0  0  0  0  0  0  0  0  0  0  0  0
    2.4837   -0.1268   -0.6695 C   0  0  0  0  0  0  0  0  0  0  0  0
    3.4434   -0.2120    0.4810 C   0  0  0  0  0  0  0  0  0  0  0  0
    3.6338   -1.5180    0.8944 O   0  0  0  0  0  0  0  0  0  0  0  0
    1.8012    1.2239   -0.6949 C   0  0  0  0  0  0  0  0  0  0  0  0
   -1.8685   -0.5958   -1.4818 H   0  0  0  0  0  0  0  0  0  0  0  0
   -1.6720   -1.6003    0.5368 H   0  0  0  0  0  0  0  0  0  0  0  0
   -1.3160   -0.0386    1.3630 H   0  0  0  0  0  0  0  0  0  0  0  0
   -3.5232   -0.0406    2.0872 H   0  0  0  0  0  0  0  0  0  0  0  0
   -3.9083   -1.4290    1.0210 H   0  0  0  0  0  0  0  0  0  0  0  0
   -4.5308    1.2686    0.5639 H   0  0  0  0  0  0  0  0  0  0  0  0
    0.8094   -1.4051   -1.1913 H   0  0  0  0  0  0  0  0  0  0  0  0
    0.9079   -1.0723    0.5883 H   0  0  0  0  0  0  0  0  0  0  0  0
    2.9301   -0.4666   -1.6016 H   0  0  0  0  0  0  0  0  0  0  0  0
    3.1588    0.4514    1.3214 H   0  0  0  0  0  0  0  0  0  0  0  0
    4.4269    0.1644    0.1124 H   0  0  0  0  0  0  0  0  0  0  0  0
    4.0607   -2.0128    0.1495 H   0  0  0  0  0  0  0  0  0  0  0  0
    2.0289    1.7170   -1.6712 H   0  0  0  0  0  0  0  0  0  0  0  0
    1.9919    1.8355    0.2037 H   0  0  0  0  0  0  0  0  0  0  0  0
  1  2  2  0
  2  3  1  0
  3  4  1  0
  4  5  1  0
  5  6  1  0
  6  7  1  0
  2  8  1  0
  8  9  1  0
  9 10  1  0
 10 11  1  0
 11 12  1  0
 10 13  1  0
  7  3  1  0
 13  8  1  0
  3 14  1  6
  4 15  1  0
  4 16  1  0
  5 17  1  0
  5 18  1  0
  6 19  1  0
  9 20  1  0
  9 21  1  0
 10 22  1  0
 11 23  1  0
 11 24  1  0
 12 25  1  0
 13 26  1  0
 13 27  1  0
M  END
$$$$

     RDKit          3D

 27 28  0  0  0  0  0  0  0  0999 V2000
    0.9158   -0.8597   -2.3496 O   0  0  0  0  0  0  0  0  0  0  0  0
    0.7209   -0.1274   -1.3421 C   0  0  0  0  0  0  0  0  0  0  0  0
    1.8581    0.5607   -0.6900 C   0  0  1  0  0  0  0  0  0  0  0  0
    2.1869   -0.0691    0.6698 C   0  0  0  0  0  0  0  0  0  0  0  0
    3.6323    0.4231    0.8095 C   0  0  0  0  0  0  0  0  0  0  0  0
    4.0581    0.5181   -0.5439 N   0  0  0  0  0  0  0  0  0  0  0  0
    3.0467    0.2888   -1.3594 O   0  0  0  0  0  0  0  0  0  0  0  0
   -0.5816    0.0561   -0.8109 N   0  0  0  0  0  0  0  0  0  0  0  0
   -1.2474    0.7549    0.2524 C   0  0  0  0  0  0  0  0  0  0  0  0
   -2.3222   -0.3100    0.2408 C   0  0  0  0  0  0  0  0  0  0  0  0
   -3.7291    0.2159    0.3772 C   0  0  0  0  0  0  0  0  0  0  0  0
   -3.9066    0.9195    1.5845 O   0  0  0  0  0  0  0  0  0  0  0  0
   -1.8908   -0.4630   -1.1984 C   0  0  0  0  0  0  0  0  0  0  0  0
    1.6849    1.6311   -0.5527 H   0  0  0  0  0  0  0  0  0  0  0  0
    1.5658    0.2985    1.4816 H   0  0  0  0  0  0  0  0  0  0  0  0
    2.2231   -1.1668    0.5751 H   0  0  0  0  0  0  0  0  0  0  0  0
    4.2346   -0.2668    1.4339 H   0  0  0  0  0  0  0  0  0  0  0  0
    3.5675    1.4382    1.2586 H   0  0  0  0  0  0  0  0  0  0  0  0
    4.8309   -0.1923   -0.6875 H   0  0  0  0  0  0  0  0  0  0  0  0
   -1.6696    1.7205   -0.1285 H   0  0  0  0  0  0  0  0  0  0  0  0
   -0.7237    0.8938    1.1927 H   0  0  0  0  0  0  0  0  0  0  0  0
   -2.0742   -1.1597    0.8929 H   0  0  0  0  0  0  0  0  0  0  0  0
   -4.4028   -0.6664    0.4313 H   0  0  0  0  0  0  0  0  0  0  0  0
   -3.9756    0.8806   -0.4538 H   0  0  0  0  0  0  0  0  0  0  0  0
   -3.6919    0.3464    2.3554 H   0  0  0  0  0  0  0  0  0  0  0  0
   -2.4263    0.2728   -1.8500 H   0  0  0  0  0  0  0  0  0  0  0  0
   -1.8838   -1.4955   -1.5890 H   0  0  0  0  0  0  0  0  0  0  0  0
  1  2  2  0
  2  3  1  0
  3  4  1  0
  4  5  1  0
  5  6  1  0
  6  7  1  0
  2  8  1  0
  8  9  1  0
  9 10  1  0
 10 11  1  0
 11 12  1  0
 10 13  1  0
  7  3  1  0
 13  8  1  0
  3 14  1  1
  4 15  1  0
  4 16  1  0
  5 17  1  0
  5 18  1  0
  6 19  1  0
  9 20  1  0
  9 21  1  0
 10 22  1  0
 11 23  1  0
 11 24  1  0
 12 25  1  0
 13 26  1  0
 13 27  1  0
M  END
$$$$
