
     RDKit          3D

 31 31  0  0  0  0  0  0  0  0999 V2000
   -3.2949   -1.4267   -0.6924 C   0  0  0  0  0  0  0  0  0  0  0  0
   -2.4303   -0.5506    0.0596 N   0  0  0  0  0  0  0  0  0  0  0  0
   -2.8783    0.8197    0.2738 C   0  0  0  0  0  0  0  0  0  0  0  0
   -2.0323    1.3702    1.4192 C   0  0  0  0  0  0  0  0  0  0  0  0
   -0.6013    1.3119    0.9212 C   0  0  0  0  0  0  0  0  0  0  0  0
   -0.0945   -0.1088    0.8007 C   0  0  2  0  0  0  0  0  0  0  0  0
    0.8882   -0.0996   -0.3848 C   0  0  0  0  0  0  0  0  0  0  0  0
    1.9058    0.8329   -0.0278 N   0  0  0  0  0  0  0  0  0  0  0  0
    2.9613    1.0036   -0.9841 C   0  0  0  0  0  0  0  0  0  0  0  0
    3.8347   -0.1756   -1.0980 C   0  0  0  0  0  0  0  0  0  0  0  0
    3.6412   -1.3246   -0.3301 N   0  0  0  0  0  0  0  0  0  0  0  0
    4.7817   -0.0841   -1.9394 O   0  0  0  0  0  0  0  0  0  0  0  0
   -1.2024   -1.0580    0.5450 C   0  0  0  0  0  0  0  0  0  0  0  0
   -1.0059   -2.2795    0.7690 O   0  0  0  0  0  0  0  0  0  0  0  0
   -4.0844   -1.8374   -0.0221 H   0  0  0  0  0  0  0  0  0  0  0  0
   -3.8136   -0.8114   -1.4733 H   0  0  0  0  0  0  0  0  0  0  0  0
   -2.7459   -2.2716   -1.1831 H   0  0  0  0  0  0  0  0  0  0  0  0
   -3.9273    0.8969    0.5545 H   0  0  0  0  0  0  0  0  0  0  0  0
   -2.6226    1.3904   -0.6426 H   0  0  0  0  0  0  0  0  0  0  0  0
   -2.2902    2.4312    1.5143 H   0  0  0  0  0  0  0  0  0  0  0  0
   -2.1279    0.7763    2.3276 H   0  0  0  0  0  0  0  0  0  0  0  0
   -0.5885    1.7826   -0.0822 H   0  0  0  0  0  0  0  0  0  0  0  0
    0.0738    1.8938    1.5833 H   0  0  0  0  0  0  0  0  0  0  0  0
    0.4908   -0.3655    1.6828 H   0  0  0  0  0  0  0  0  0  0  0  0
    0.3724    0.1866   -1.3118 H   0  0  0  0  0  0  0  0  0  0  0  0
    1.3212   -1.0925   -0.5431 H   0  0  0  0  0  0  0  0  0  0  0  0
    2.2143    0.7380    0.9443 H   0  0  0  0  0  0  0  0  0  0  0  0
    3.5812    1.8642   -0.6602 H   0  0  0  0  0  0  0  0  0  0  0  0
    2.5463    1.2725   -1.9806 H   0  0  0  0  0  0  0  0  0  0  0  0
    3.6900   -2.2883   -0.7319 H   0  0  0  0  0  0  0  0  0  0  0  0
    3.4373   -1.2666    0.6923 H   0  0  0  0  0  0  0  0  0  0  0  0
  1  2  1  0
  2  3  1  0
  3  4  1  0
  4  5  1  0
  5  6  1  0
  6  7  1  0
  7  8  1  0
  8  9  1  0
  9 10  1  0
 10 11  1  0
 10 12  2  0
  6 13  1  0
 13 14  2  0
 13  2  1  0
  1 15  1  0
  1 16  1  0
  1 17  1  0
  3 18  1  0
  3 19  1  0
  4 20  1  0
  4 21  1  0
  5 22  1  0
  5 23  1  0
  6 24  1  1
  7 25  1  0
  7 26  1  0
  8 27  1  0
  9 28  1  0
  9 29  1  0
 11 30  1  0
 11 31  1  0
M  END
$$$$

     RDKit          3D

 31 31  0  0  0  0  0  0  0  0999 V2000
   -3.7724   -1.4141   -0.2416 C   0  0  0  0  0  0  0  0  0  0  0  0
   -2.7279   -0.4670   -0.0098 N   0  0  0  0  0  0  0  0  0  0  0  0
   -2.9586    0.9607    0.2123 C   0  0  0  0  0  0  0  0  0  0  0  0
   -2.1429    1.8114   -0.7140 C   0  0  0  0  0  0  0  0  0  0  0  0
   -0.7723    1.2894   -0.9687 C   0  0  0  0  0  0  0  0  0  0  0  0
   -0.4214    0.2947    0.1736 C   0  0  2  0  0  0  0  0  0  0  0  0
    1.0259    0.1057    0.0941 C   0  0  0  0  0  0  0  0  0  0  0  0
    1.6645   -0.7806    1.0218 N   0  0  0  0  0  0  0  0  0  0  0  0
    3.0753   -0.4618    0.9642 C   0  0  0  0  0  0  0  0  0  0  0  0
    3.7807   -0.7976   -0.2680 C   0  0  0  0  0  0  0  0  0  0  0  0
    5.1625   -0.4242   -0.3973 N   0  0  0  0  0  0  0  0  0  0  0  0
    3.2403   -1.3840   -1.2081 O   0  0  0  0  0  0  0  0  0  0  0  0
   -1.3205   -0.8356    0.0166 C   0  0  0  0  0  0  0  0  0  0  0  0
   -1.0305   -2.0447   -0.0937 O   0  0  0  0  0  0  0  0  0  0  0  0
   -3.8066   -1.8468   -1.2482 H   0  0  0  0  0  0  0  0  0  0  0  0
   -3.8375   -2.2023    0.5337 H   0  0  0  0  0  0  0  0  0  0  0  0
   -4.7320   -0.8459   -0.1300 H   0  0  0  0  0  0  0  0  0  0  0  0
   -4.0255    1.1389   -0.0418 H   0  0  0  0  0  0  0  0  0  0  0  0
   -2.7418    1.1606    1.2772 H   0  0  0  0  0  0  0  0  0  0  0  0
   -2.6723    1.9626   -1.6860 H   0  0  0  0  0  0  0  0  0  0  0  0
   -2.0131    2.8346   -0.2732 H   0  0  0  0  0  0  0  0  0  0  0  0
    0.0357    2.0204   -0.9404 H   0  0  0  0  0  0  0  0  0  0  0  0
   -0.7811    0.6466   -1.8691 H   0  0  0  0  0  0  0  0  0  0  0  0
   -0.6956    0.7964    1.1556 H   0  0  0  0  0  0  0  0  0  0  0  0
    1.3293   -0.2203   -0.9404 H   0  0  0  0  0  0  0  0  0  0  0  0
    1.5071    1.1175    0.2119 H   0  0  0  0  0  0  0  0  0  0  0  0
    1.5412   -1.7720    0.6607 H   0  0  0  0  0  0  0  0  0  0  0  0
    3.1150    0.6696    1.0702 H   0  0  0  0  0  0  0  0  0  0  0  0
    3.6039   -0.8267    1.8807 H   0  0  0  0  0  0  0  0  0  0  0  0
    5.9528   -1.0510   -0.1946 H   0  0  0  0  0  0  0  0  0  0  0  0
    5.4179    0.5657   -0.7206 H   0  0  0  0  0  0  0  0  0  0  0  0
  1  2  1  0
  2  3  1  0
  3  4  1  0
  4  5  1  0
  5  6  1  0
  6  7  1  0
  7  8  1  0
  8  9  1  0
  9 10  1  0
 10 11  1  0
 10 12  2  0
  6 13  1  0
 13 14  2  0
 13  2  1  0
  1 15  1  0
  1 16  1  0
  1 17  1  0
  3 18  1  0
  3 19  1  0
  4 20  1  0
  4 21  1  0
  5 22  1  0
  5 23  1  0
  6 24  1  1
  7 25  1  0
  7 26  1  0
  8 27  1  0
  9 28  1  0
  9 29  1  0
 11 30  1  0
 11 31  1  0
M  END
$$$$

     RDKit          3D

 31 31  0  0  0  0  0  0  0  0999 V2000
   -3.4525    1.6420    0.7910 C   0  0  0  0  0  0  0  0  0  0  0  0
   -2.6490    0.8647   -0.1209 N   0  0  0  0  0  0  0  0  0  0  0  0
   -3.1822   -0.3263   -0.7299 C   0  0  0  0  0  0  0  0  0  0  0  0
   -2.3077   -1.4585   -0.2307 C   0  0  0  0  0  0  0  0  0  0  0  0
   -0.8667   -1.2497   -0.4411 C   0  0  0  0  0  0  0  0  0  0  0  0
   -0.3953    0.1134   -0.8351 C   0  0  2  0  0  0  0  0  0  0  0  0
    0.9251    0.4518   -0.1463 C   0  0  0  0  0  0  0  0  0  0  0  0
    1.9644   -0.4572   -0.4833 N   0  0  0  0  0  0  0  0  0  0  0  0
    3.1241   -0.3820    0.3369 C   0  0  0  0  0  0  0  0  0  0  0  0
    3.8439    0.8856    0.1464 C   0  0  0  0  0  0  0  0  0  0  0  0
    5.0256    1.1065    0.9342 N   0  0  0  0  0  0  0  0  0  0  0  0
    3.5043    1.7912   -0.6456 O   0  0  0  0  0  0  0  0  0  0  0  0
   -1.3215    1.2039   -0.4747 C   0  0  0  0  0  0  0  0  0  0  0  0
   -0.9747    2.4334   -0.4662 O   0  0  0  0  0  0  0  0  0  0  0  0
   -4.4123    1.1529    1.0304 H   0  0  0  0  0  0  0  0  0  0  0  0
   -2.9261    1.7870    1.7776 H   0  0  0  0  0  0  0  0  0  0  0  0
   -3.6626    2.6787    0.4257 H   0  0  0  0  0  0  0  0  0  0  0  0
   -4.2310   -0.5142   -0.4433 H   0  0  0  0  0  0  0  0  0  0  0  0
   -3.1170   -0.2633   -1.8409 H   0  0  0  0  0  0  0  0  0  0  0  0
   -2.6914   -2.4298   -0.6298 H   0  0  0  0  0  0  0  0  0  0  0  0
   -2.5314   -1.5023    0.8786 H   0  0  0  0  0  0  0  0  0  0  0  0
   -0.4431   -2.0345   -1.1381 H   0  0  0  0  0  0  0  0  0  0  0  0
   -0.3418   -1.4836    0.5405 H   0  0  0  0  0  0  0  0  0  0  0  0
   -0.1815    0.1093   -1.9298 H   0  0  0  0  0  0  0  0  0  0  0  0
    0.7941    0.4704    0.9500 H   0  0  0  0  0  0  0  0  0  0  0  0
    1.2437    1.4830   -0.4679 H   0  0  0  0  0  0  0  0  0  0  0  0
    1.6788   -1.4047   -0.8070 H   0  0  0  0  0  0  0  0  0  0  0  0
    3.7901   -1.2501    0.0531 H   0  0  0  0  0  0  0  0  0  0  0  0
    2.8625   -0.4681    1.4350 H   0  0  0  0  0  0  0  0  0  0  0  0
    5.9863    1.1825    0.5476 H   0  0  0  0  0  0  0  0  0  0  0  0
    4.9449    1.1945    1.9834 H   0  0  0  0  0  0  0  0  0  0  0  0
  1  2  1  0
  2  3  1  0
  3  4  1  0
  4  5  1  0
  5  6  1  0
  6  7  1  0
  7  8  1  0
  8  9  1  0
  9 10  1  0
 10 11  1  0
 10 12  2  0
  6 13  1  0
 13 14  2  0
 13  2  1  0
  1 15  1  0
  1 16  1  0
  1 17  1  0
  3 18  1  0
  3 19  1  0
  4 20  1  0
  4 21  1  0
  5 22  1  0
  5 23  1  0
  6 24  1  6
  7 25  1  0
  7 26  1  0
  8 27  1  0
  9 28  1  0
  9 29  1  0
 11 30  1  0
 11 31  1  0
M  END
$$$$

     RDKit          3D

 31 31  0  0  0  0  0  0  0  0999 V2000
   -3.8549   -1.4302   -0.1137 C   0  0  0  0  0  0  0  0  0  0  0  0
   -2.6914   -0.5340   -0.2341 N   0  0  0  0  0  0  0  0  0  0  0  0
   -2.8312    0.8803   -0.1295 C   0  0  0  0  0  0  0  0  0  0  0  0
   -1.7272    1.6252    0.5023 C   0  0  0  0  0  0  0  0  0  0  0  0
   -0.3614    1.0710    0.3835 C   0  0  0  0  0  0  0  0  0  0  0  0
   -0.2179   -0.3371   -0.0611 C   0  0  2  0  0  0  0  0  0  0  0  0
    0.7924   -0.4142   -1.2147 C   0  0  0  0  0  0  0  0  0  0  0  0
    2.1026    0.0293   -0.8468 N   0  0  0  0  0  0  0  0  0  0  0  0
    2.7799   -0.9293    0.0100 C   0  0  0  0  0  0  0  0  0  0  0  0
    4.0536   -0.3184    0.4721 C   0  0  0  0  0  0  0  0  0  0  0  0
    4.4127    1.0211    0.0955 N   0  0  0  0  0  0  0  0  0  0  0  0
    4.8268   -0.9859    1.2070 O   0  0  0  0  0  0  0  0  0  0  0  0
   -1.4014   -1.0582   -0.4533 C   0  0  0  0  0  0  0  0  0  0  0  0
   -1.2597   -2.1926   -1.0125 O   0  0  0  0  0  0  0  0  0  0  0  0
   -4.7632   -0.8200    0.0479 H   0  0  0  0  0  0  0  0  0  0  0  0
   -3.8966   -2.0476   -1.0286 H   0  0  0  0  0  0  0  0  0  0  0  0
   -3.6872   -2.0700    0.7734 H   0  0  0  0  0  0  0  0  0  0  0  0
   -3.7961    1.0712    0.4339 H   0  0  0  0  0  0  0  0  0  0  0  0
   -3.0441    1.2727   -1.1669 H   0  0  0  0  0  0  0  0  0  0  0  0
   -2.0030    1.8619    1.5580 H   0  0  0  0  0  0  0  0  0  0  0  0
   -1.7360    2.6521    0.0166 H   0  0  0  0  0  0  0  0  0  0  0  0
    0.1604    1.1911    1.3528 H   0  0  0  0  0  0  0  0  0  0  0  0
    0.2414    1.7154   -0.3292 H   0  0  0  0  0  0  0  0  0  0  0  0
    0.2677   -0.9497    0.7591 H   0  0  0  0  0  0  0  0  0  0  0  0
    0.8485   -1.4613   -1.5821 H   0  0  0  0  0  0  0  0  0  0  0  0
    0.3810    0.2556   -1.9915 H   0  0  0  0  0  0  0  0  0  0  0  0
    2.1174    0.9908   -0.4195 H   0  0  0  0  0  0  0  0  0  0  0  0
    3.0147   -1.7979   -0.6734 H   0  0  0  0  0  0  0  0  0  0  0  0
    2.1970   -1.2816    0.8501 H   0  0  0  0  0  0  0  0  0  0  0  0
    4.8328    1.1784   -0.8181 H   0  0  0  0  0  0  0  0  0  0  0  0
    4.2424    1.8118    0.7830 H   0  0  0  0  0  0  0  0  0  0  0  0
  1  2  1  0
  2  3  1  0
  3  4  1  0
  4  5  1  0
  5  6  1  0
  6  7  1  0
  7  8  1  0
  8  9  1  0
  9 10  1  0
 10 11  1  0
 10 12  2  0
  6 13  1  0
 13 14  2  0
 13  2  1  0
  1 15  1  0
  1 16  1  0
  1 17  1  0
  3 18  1  0
  3 19  1  0
  4 20  1  0
  4 21  1  0
  5 22  1  0
  5 23  1  0
  6 24  1  1
  7 25  1  0
  7 26  1  0
  8 27  1  0
  9 28  1  0
  9 29  1  0
 11 30  1  0
 11 31  1  0
M  END
$$$$

     RDKit          3D

 31 31  0  0  0  0  0  0  0  0999 V2000
   -3.7293   -1.1703    0.7518 C   0  0  0  0  0  0  0  0  0  0  0  0
   -2.5976   -0.2891    0.6973 N   0  0  0  0  0  0  0  0  0  0  0  0
   -2.7614    1.1619    0.6779 C   0  0  0  0  0  0  0  0  0  0  0  0
   -2.1372    1.7265   -0.6024 C   0  0  0  0  0  0  0  0  0  0  0  0
   -0.9996    0.8383   -1.1037 C   0  0  0  0  0  0  0  0  0  0  0  0
   -0.2777    0.2890    0.1548 C   0  0  2  0  0  0  0  0  0  0  0  0
    1.0271   -0.2707   -0.2761 C   0  0  0  0  0  0  0  0  0  0  0  0
    1.7268   -0.7987    0.8701 N   0  0  0  0  0  0  0  0  0  0  0  0
    3.0877   -1.1343    0.4221 C   0  0  0  0  0  0  0  0  0  0  0  0
    3.8199    0.1648    0.2035 C   0  0  0  0  0  0  0  0  0  0  0  0
    5.1457    0.1713   -0.2728 N   0  0  0  0  0  0  0  0  0  0  0  0
    3.2602    1.2719    0.4399 O   0  0  0  0  0  0  0  0  0  0  0  0
   -1.2201   -0.7380    0.6537 C   0  0  0  0  0  0  0  0  0  0  0  0
   -0.9714   -1.8907    1.0203 O   0  0  0  0  0  0  0  0  0  0  0  0
   -4.5511   -0.7361    0.1040 H   0  0  0  0  0  0  0  0  0  0  0  0
   -4.1475   -1.2024    1.7925 H   0  0  0  0  0  0  0  0  0  0  0  0
   -3.5558   -2.1873    0.3817 H   0  0  0  0  0  0  0  0  0  0  0  0
   -3.8255    1.4556    0.7332 H   0  0  0  0  0  0  0  0  0  0  0  0
   -2.2613    1.6051    1.5617 H   0  0  0  0  0  0  0  0  0  0  0  0
   -1.7024    2.7463   -0.3722 H   0  0  0  0  0  0  0  0  0  0  0  0
   -2.8847    1.8639   -1.3828 H   0  0  0  0  0  0  0  0  0  0  0  0
   -1.4706   -0.0333   -1.6108 H   0  0  0  0  0  0  0  0  0  0  0  0
   -0.3249    1.4164   -1.7235 H   0  0  0  0  0  0  0  0  0  0  0  0
   -0.1768    1.1424    0.8661 H   0  0  0  0  0  0  0  0  0  0  0  0
    0.7787   -1.1402   -0.9735 H   0  0  0  0  0  0  0  0  0  0  0  0
    1.5942    0.4815   -0.8626 H   0  0  0  0  0  0  0  0  0  0  0  0
    1.2931   -1.6885    1.1816 H   0  0  0  0  0  0  0  0  0  0  0  0
    3.6276   -1.7657    1.1474 H   0  0  0  0  0  0  0  0  0  0  0  0
    2.9685   -1.6410   -0.5590 H   0  0  0  0  0  0  0  0  0  0  0  0
    5.3338    0.2542   -1.2824 H   0  0  0  0  0  0  0  0  0  0  0  0
    5.9315    0.0971    0.3919 H   0  0  0  0  0  0  0  0  0  0  0  0
  1  2  1  0
  2  3  1  0
  3  4  1  0
  4  5  1  0
  5  6  1  0
  6  7  1  0
  7  8  1  0
  8  9  1  0
  9 10  1  0
 10 11  1  0
 10 12  2  0
  6 13  1  0
 13 14  2  0
 13  2  1  0
  1 15  1  0
  1 16  1  0
  1 17  1  0
  3 18  1  0
  3 19  1  0
  4 20  1  0
  4 21  1  0
  5 22  1  0
  5 23  1  0
  6 24  1  1
  7 25  1  0
  7 26  1  0
  8 27  1  0
  9 28  1  0
  9 29  1  0
 11 30  1  0
 11 31  1  0
M  END
$$$$

     RDKit          3D

 31 31  0  0  0  0  0  0  0  0999 V2000
   -1.7705    1.9039   -0.8098 C   0  0  0  0  0  0  0  0  0  0  0  0
   -1.6908    0.5302   -0.5080 N   0  0  0  0  0  0  0  0  0  0  0  0
   -2.7187   -0.1566    0.3004 C   0  0  0  0  0  0  0  0  0  0  0  0
   -2.5720   -1.6422   -0.0767 C   0  0  0  0  0  0  0  0  0  0  0  0
   -1.2659   -2.1694    0.4078 C   0  0  0  0  0  0  0  0  0  0  0  0
   -0.0717   -1.3503   -0.0915 C   0  0  2  0  0  0  0  0  0  0  0  0
    0.6723   -0.8342    1.0961 C   0  0  0  0  0  0  0  0  0  0  0  0
    1.7932   -0.0781    0.8168 N   0  0  0  0  0  0  0  0  0  0  0  0
    1.7705    1.2179    0.3166 C   0  0  0  0  0  0  0  0  0  0  0  0
    3.1986    1.7017    0.1540 C   0  0  0  0  0  0  0  0  0  0  0  0
    4.2724    0.8416    0.4955 N   0  0  0  0  0  0  0  0  0  0  0  0
    3.3589    2.8614   -0.2829 O   0  0  0  0  0  0  0  0  0  0  0  0
   -0.6113   -0.3009   -0.9792 C   0  0  0  0  0  0  0  0  0  0  0  0
   -0.1734   -0.0945   -2.1464 O   0  0  0  0  0  0  0  0  0  0  0  0
   -2.4294    2.0550   -1.7167 H   0  0  0  0  0  0  0  0  0  0  0  0
   -2.3450    2.4223    0.0031 H   0  0  0  0  0  0  0  0  0  0  0  0
   -0.8298    2.4555   -0.9159 H   0  0  0  0  0  0  0  0  0  0  0  0
   -3.7169    0.1821    0.0359 H   0  0  0  0  0  0  0  0  0  0  0  0
   -2.4271   -0.0740    1.3533 H   0  0  0  0  0  0  0  0  0  0  0  0
   -2.6713   -1.7755   -1.1788 H   0  0  0  0  0  0  0  0  0  0  0  0
   -3.3966   -2.1944    0.3898 H   0  0  0  0  0  0  0  0  0  0  0  0
   -1.0981   -3.2127    0.1031 H   0  0  0  0  0  0  0  0  0  0  0  0
   -1.2624   -2.1177    1.5207 H   0  0  0  0  0  0  0  0  0  0  0  0
    0.5454   -2.0176   -0.7320 H   0  0  0  0  0  0  0  0  0  0  0  0
   -0.0752   -0.2616    1.7492 H   0  0  0  0  0  0  0  0  0  0  0  0
    0.9507   -1.7103    1.7814 H   0  0  0  0  0  0  0  0  0  0  0  0
    2.7249   -0.5393    0.8970 H   0  0  0  0  0  0  0  0  0  0  0  0
    1.3049    1.8979    1.0787 H   0  0  0  0  0  0  0  0  0  0  0  0
    1.2627    1.3768   -0.6349 H   0  0  0  0  0  0  0  0  0  0  0  0
    4.6684    0.8815    1.4505 H   0  0  0  0  0  0  0  0  0  0  0  0
    4.6033    0.2016   -0.2713 H   0  0  0  0  0  0  0  0  0  0  0  0
  1  2  1  0
  2  3  1  0
  3  4  1  0
  4  5  1  0
  5  6  1  0
  6  7  1  0
  7  8  1  0
  8  9  1  0
  9 10  1  0
 10 11  1  0
 10 12  2  0
  6 13  1  0
 13 14  2  0
 13  2  1  0
  1 15  1  0
  1 16  1  0
  1 17  1  0
  3 18  1  0
  3 19  1  0
  4 20  1  0
  4 21  1  0
  5 22  1  0
  5 23  1  0
  6 24  1  6
  7 25  1  0
  7 26  1  0
  8 27  1  0
  9 28  1  0
  9 29  1  0
 11 30  1  0
 11 31  1  0
M  END
$$$$

     RDKit          3D

 31 31  0  0  0  0  0  0  0  0999 V2000
   -3.4731    1.5657   -0.0109 C   0  0  0  0  0  0  0  0  0  0  0  0
   -2.4706    0.5290    0.1325 N   0  0  0  0  0  0  0  0  0  0  0  0
   -2.9547   -0.7344    0.6921 C   0  0  0  0  0  0  0  0  0  0  0  0
   -2.1231   -1.8090   -0.0018 C   0  0  0  0  0  0  0  0  0  0  0  0
   -0.7091   -1.6434    0.4711 C   0  0  0  0  0  0  0  0  0  0  0  0
   -0.0849   -0.3742   -0.0643 C   0  0  2  0  0  0  0  0  0  0  0  0
    0.9601    0.0318    0.9582 C   0  0  0  0  0  0  0  0  0  0  0  0
    1.7012    1.1918    0.6401 N   0  0  0  0  0  0  0  0  0  0  0  0
    2.6342    1.0373   -0.4451 C   0  0  0  0  0  0  0  0  0  0  0  0
    3.7508    0.1858    0.0167 C   0  0  0  0  0  0  0  0  0  0  0  0
    4.8437   -0.1949   -0.8251 N   0  0  0  0  0  0  0  0  0  0  0  0
    3.7916   -0.2562    1.2049 O   0  0  0  0  0  0  0  0  0  0  0  0
   -1.1102    0.6873   -0.2376 C   0  0  0  0  0  0  0  0  0  0  0  0
   -0.7542    1.7782   -0.7365 O   0  0  0  0  0  0  0  0  0  0  0  0
   -4.2981    1.1814   -0.6511 H   0  0  0  0  0  0  0  0  0  0  0  0
   -3.0722    2.5259   -0.3957 H   0  0  0  0  0  0  0  0  0  0  0  0
   -3.9525    1.7576    0.9854 H   0  0  0  0  0  0  0  0  0  0  0  0
   -4.0189   -0.9031    0.4957 H   0  0  0  0  0  0  0  0  0  0  0  0
   -2.6938   -0.7906    1.7611 H   0  0  0  0  0  0  0  0  0  0  0  0
   -2.4886   -2.8152    0.2784 H   0  0  0  0  0  0  0  0  0  0  0  0
   -2.1370   -1.6733   -1.0872 H   0  0  0  0  0  0  0  0  0  0  0  0
   -0.6458   -1.7290    1.5551 H   0  0  0  0  0  0  0  0  0  0  0  0
   -0.1282   -2.5069    0.0561 H   0  0  0  0  0  0  0  0  0  0  0  0
    0.4058   -0.5752   -1.0151 H   0  0  0  0  0  0  0  0  0  0  0  0
    1.6319   -0.8412    1.0461 H   0  0  0  0  0  0  0  0  0  0  0  0
    0.4666    0.2036    1.9580 H   0  0  0  0  0  0  0  0  0  0  0  0
    1.1858    2.0839    0.6363 H   0  0  0  0  0  0  0  0  0  0  0  0
    3.0709    2.0475   -0.6582 H   0  0  0  0  0  0  0  0  0  0  0  0
    2.1775    0.6681   -1.3675 H   0  0  0  0  0  0  0  0  0  0  0  0
    5.7687    0.2176   -0.5886 H   0  0  0  0  0  0  0  0  0  0  0  0
    4.7260   -0.8459   -1.6200 H   0  0  0  0  0  0  0  0  0  0  0  0
  1  2  1  0
  2  3  1  0
  3  4  1  0
  4  5  1  0
  5  6  1  0
  6  7  1  0
  7  8  1  0
  8  9  1  0
  9 10  1  0
 10 11  1  0
 10 12  2  0
  6 13  1  0
 13 14  2  0
 13  2  1  0
  1 15  1  0
  1 16  1  0
  1 17  1  0
  3 18  1  0
  3 19  1  0
  4 20  1  0
  4 21  1  0
  5 22  1  0
  5 23  1  0
  6 24  1  6
  7 25  1  0
  7 26  1  0
  8 27  1  0
  9 28  1  0
  9 29  1  0
 11 30  1  0
 11 31  1  0
M  END
$$$$

     RDKit          3D

 31 31  0  0  0  0  0  0  0  0999 V2000
   -3.3350    1.8569   -0.1543 C   0  0  0  0  0  0  0  0  0  0  0  0
   -2.5348    0.6616   -0.2340 N   0  0  0  0  0  0  0  0  0  0  0  0
   -3.0964   -0.6277    0.1348 C   0  0  0  0  0  0  0  0  0  0  0  0
   -2.1545   -1.5469    0.8259 C   0  0  0  0  0  0  0  0  0  0  0  0
   -0.6875   -1.1435    0.7356 C   0  0  0  0  0  0  0  0  0  0  0  0
   -0.4788   -0.5868   -0.6587 C   0  0  2  0  0  0  0  0  0  0  0  0
    0.9123   -0.6019   -1.1202 C   0  0  0  0  0  0  0  0  0  0  0  0
    1.8833    0.1513   -0.3576 N   0  0  0  0  0  0  0  0  0  0  0  0
    3.1957   -0.2338   -0.8670 C   0  0  0  0  0  0  0  0  0  0  0  0
    4.3128    0.4611   -0.2293 C   0  0  0  0  0  0  0  0  0  0  0  0
    4.2129    1.4508    0.7870 N   0  0  0  0  0  0  0  0  0  0  0  0
    5.4901    0.1546   -0.6200 O   0  0  0  0  0  0  0  0  0  0  0  0
   -1.1893    0.7111   -0.6658 C   0  0  0  0  0  0  0  0  0  0  0  0
   -0.7019    1.8061   -1.0144 O   0  0  0  0  0  0  0  0  0  0  0  0
   -2.7930    2.7413    0.1872 H   0  0  0  0  0  0  0  0  0  0  0  0
   -3.8395    1.9791   -1.1514 H   0  0  0  0  0  0  0  0  0  0  0  0
   -4.1686    1.6774    0.5823 H   0  0  0  0  0  0  0  0  0  0  0  0
   -3.5126   -1.0487   -0.8242 H   0  0  0  0  0  0  0  0  0  0  0  0
   -4.0094   -0.4088    0.7506 H   0  0  0  0  0  0  0  0  0  0  0  0
   -2.4747   -1.7543    1.8732 H   0  0  0  0  0  0  0  0  0  0  0  0
   -2.2290   -2.5516    0.3194 H   0  0  0  0  0  0  0  0  0  0  0  0
   -0.5734   -0.3062    1.4483 H   0  0  0  0  0  0  0  0  0  0  0  0
   -0.0607   -2.0190    0.9363 H   0  0  0  0  0  0  0  0  0  0  0  0
   -1.0699   -1.2949   -1.3160 H   0  0  0  0  0  0  0  0  0  0  0  0
    1.2493   -1.6658   -1.2615 H   0  0  0  0  0  0  0  0  0  0  0  0
    0.9350   -0.1828   -2.1699 H   0  0  0  0  0  0  0  0  0  0  0  0
    1.7859    0.1579    0.6513 H   0  0  0  0  0  0  0  0  0  0  0  0
    3.3430   -1.3491   -0.8009 H   0  0  0  0  0  0  0  0  0  0  0  0
    3.2241   -0.0289   -1.9547 H   0  0  0  0  0  0  0  0  0  0  0  0
    4.2312    1.0926    1.7631 H   0  0  0  0  0  0  0  0  0  0  0  0
    4.1334    2.4490    0.5447 H   0  0  0  0  0  0  0  0  0  0  0  0
  1  2  1  0
  2  3  1  0
  3  4  1  0
  4  5  1  0
  5  6  1  0
  6  7  1  0
  7  8  1  0
  8  9  1  0
  9 10  1  0
 10 11  1  0
 10 12  2  0
  6 13  1  0
 13 14  2  0
 13  2  1  0
  1 15  1  0
  1 16  1  0
  1 17  1  0
  3 18  1  0
  3 19  1  0
  4 20  1  0
  4 21  1  0
  5 22  1  0
  5 23  1  0
  6 24  1  6
  7 25  1  0
  7 26  1  0
  8 27  1  0
  9 28  1  0
  9 29  1  0
 11 30  1  0
 11 31  1  0
M  END
$$$$
