
     RDKit          3D

 30 31  0  0  0  0  0  0  0  0999 V2000
   -2.5678    1.5174   -0.7058 C   0  0  0  0  0  0  0  0  0  0  0  0
   -2.7067    0.1448   -0.3302 N   0  0  0  0  0  0  0  0  0  0  0  0
   -2.8304   -0.0504    1.0817 C   0  0  0  0  0  0  0  0  0  0  0  0
   -1.5262    0.2495    1.7641 C   0  0  0  0  0  0  0  0  0  0  0  0
   -0.4575   -0.5652    1.2438 N   0  0  0  0  0  0  0  0  0  0  0  0
   -0.3444   -0.4977   -0.1844 C   0  0  1  0  0  0  0  0  0  0  0  0
    0.5773   -1.6357   -0.6410 C   0  0  0  0  0  0  0  0  0  0  0  0
    1.8879   -1.5278   -0.0606 N   0  0  0  0  0  0  0  0  0  0  0  0
    2.6585   -0.5301   -0.1603 C   0  0  0  0  0  0  0  0  0  0  0  0
    2.4260    0.6134   -0.8118 N   0  0  0  0  0  0  0  0  0  0  0  0
    3.4963    1.4368   -0.6849 C   0  0  0  0  0  0  0  0  0  0  0  0
    4.3828    0.7638    0.0597 N   0  0  0  0  0  0  0  0  0  0  0  0
    3.8792   -0.4213    0.3764 N   0  0  0  0  0  0  0  0  0  0  0  0
   -1.6867   -0.7103   -0.8496 C   0  0  0  0  0  0  0  0  0  0  0  0
   -2.6535    1.5943   -1.8090 H   0  0  0  0  0  0  0  0  0  0  0  0
   -1.5838    1.9275   -0.4352 H   0  0  0  0  0  0  0  0  0  0  0  0
   -3.3798    2.0928   -0.2138 H   0  0  0  0  0  0  0  0  0  0  0  0
   -3.0433   -1.1369    1.2595 H   0  0  0  0  0  0  0  0  0  0  0  0
   -3.6347    0.5417    1.5523 H   0  0  0  0  0  0  0  0  0  0  0  0
   -1.2438    1.3069    1.7301 H   0  0  0  0  0  0  0  0  0  0  0  0
   -1.6459   -0.0195    2.8355 H   0  0  0  0  0  0  0  0  0  0  0  0
   -0.6269   -1.5426    1.5636 H   0  0  0  0  0  0  0  0  0  0  0  0
    0.0680    0.4762   -0.5034 H   0  0  0  0  0  0  0  0  0  0  0  0
    0.1259   -2.6163   -0.3911 H   0  0  0  0  0  0  0  0  0  0  0  0
    0.6986   -1.5975   -1.7468 H   0  0  0  0  0  0  0  0  0  0  0  0
    3.5751    2.4244   -1.1130 H   0  0  0  0  0  0  0  0  0  0  0  0
    5.3077    1.1461    0.3248 H   0  0  0  0  0  0  0  0  0  0  0  0
    4.4167   -1.1103    0.9605 H   0  0  0  0  0  0  0  0  0  0  0  0
   -1.5623   -0.5125   -1.9280 H   0  0  0  0  0  0  0  0  0  0  0  0
   -2.0064   -1.7617   -0.6940 H   0  0  0  0  0  0  0  0  0  0  0  0
  1  2  1  0
  2  3  1  0
  3  4  1  0
  4  5  1  0
  5  6  1  0
  6  7  1  0
  7  8  1  0
  8  9  2  3
  9 10  1  0
 10 11  2  0
 11 12  1  0
 12 13  1  0
  6 14  1  0
 14  2  1  0
 13  9  1  0
  1 15  1  0
  1 16  1  0
  1 17  1  0
  3 18  1  0
  3 19  1  0
  4 20  1  0
  4 21  1  0
  5 22  1  0
  6 23  1  1
  7 24  1  0
  7 25  1  0
 11 26  1  0
 12 27  1  0
 13 28  1  0
 14 29  1  0
 14 30  1  0
M  END
$$$$

     RDKit          3D

 30 31  0  0  0  0  0  0  0  0999 V2000
   -2.7462    0.1830   -1.8860 C   0  0  0  0  0  0  0  0  0  0  0  0
   -2.4703    0.4673   -0.5233 N   0  0  0  0  0  0  0  0  0  0  0  0
   -3.1845   -0.2691    0.4403 C   0  0  0  0  0  0  0  0  0  0  0  0
   -2.4683   -1.4009    1.0801 C   0  0  0  0  0  0  0  0  0  0  0  0
   -1.0597   -1.3632    0.7276 N   0  0  0  0  0  0  0  0  0  0  0  0
   -0.6406    0.0090    0.9509 C   0  0  1  0  0  0  0  0  0  0  0  0
    0.8337    0.0939    1.1651 C   0  0  0  0  0  0  0  0  0  0  0  0
    1.6193   -0.3814    0.0760 N   0  0  0  0  0  0  0  0  0  0  0  0
    2.8254    0.0322   -0.0582 C   0  0  0  0  0  0  0  0  0  0  0  0
    3.4611    0.8954    0.7386 N   0  0  0  0  0  0  0  0  0  0  0  0
    4.7179    1.0912    0.2823 C   0  0  0  0  0  0  0  0  0  0  0  0
    4.8686    0.3462   -0.8059 N   0  0  0  0  0  0  0  0  0  0  0  0
    3.7165   -0.2997   -1.0148 N   0  0  0  0  0  0  0  0  0  0  0  0
   -1.1345    0.8238   -0.2122 C   0  0  0  0  0  0  0  0  0  0  0  0
   -1.8813    0.4355   -2.5377 H   0  0  0  0  0  0  0  0  0  0  0  0
   -3.0704   -0.8707   -2.0816 H   0  0  0  0  0  0  0  0  0  0  0  0
   -3.6333    0.8131   -2.1885 H   0  0  0  0  0  0  0  0  0  0  0  0
   -3.5227    0.4303    1.2504 H   0  0  0  0  0  0  0  0  0  0  0  0
   -4.1178   -0.6613   -0.0178 H   0  0  0  0  0  0  0  0  0  0  0  0
   -2.4933   -1.3326    2.2078 H   0  0  0  0  0  0  0  0  0  0  0  0
   -2.9082   -2.3921    0.8492 H   0  0  0  0  0  0  0  0  0  0  0  0
   -0.9564   -1.6024   -0.2736 H   0  0  0  0  0  0  0  0  0  0  0  0
   -1.1397    0.4037    1.8610 H   0  0  0  0  0  0  0  0  0  0  0  0
    1.1110    1.1512    1.3617 H   0  0  0  0  0  0  0  0  0  0  0  0
    1.0868   -0.4726    2.0716 H   0  0  0  0  0  0  0  0  0  0  0  0
    5.4326    1.7421    0.7482 H   0  0  0  0  0  0  0  0  0  0  0  0
    5.7346    0.2809   -1.3896 H   0  0  0  0  0  0  0  0  0  0  0  0
    3.5901   -0.9510   -1.8183 H   0  0  0  0  0  0  0  0  0  0  0  0
   -1.1074    1.8925    0.0949 H   0  0  0  0  0  0  0  0  0  0  0  0
   -0.4629    0.7514   -1.0982 H   0  0  0  0  0  0  0  0  0  0  0  0
  1  2  1  0
  2  3  1  0
  3  4  1  0
  4  5  1  0
  5  6  1  0
  6  7  1  0
  7  8  1  0
  8  9  2  3
  9 10  1  0
 10 11  2  0
 11 12  1  0
 12 13  1  0
  6 14  1  0
 14  2  1  0
 13  9  1  0
  1 15  1  0
  1 16  1  0
  1 17  1  0
  3 18  1  0
  3 19  1  0
  4 20  1  0
  4 21  1  0
  5 22  1  0
  6 23  1  1
  7 24  1  0
  7 25  1  0
 11 26  1  0
 12 27  1  0
 13 28  1  0
 14 29  1  0
 14 30  1  0
M  END
$$$$

     RDKit          3D

 30 31  0  0  0  0  0  0  0  0999 V2000
   -3.4045    2.0903    0.3055 C   0  0  0  0  0  0  0  0  0  0  0  0
   -2.7439    0.7967    0.4932 N   0  0  0  0  0  0  0  0  0  0  0  0
   -3.2041   -0.1118   -0.5047 C   0  0  0  0  0  0  0  0  0  0  0  0
   -2.3271   -1.2965   -0.7331 C   0  0  0  0  0  0  0  0  0  0  0  0
   -0.9249   -0.9592   -0.8551 N   0  0  0  0  0  0  0  0  0  0  0  0
   -0.5281   -0.2464    0.3112 C   0  0  1  0  0  0  0  0  0  0  0  0
    0.9298    0.1033    0.3533 C   0  0  0  0  0  0  0  0  0  0  0  0
    1.8083   -1.0209    0.3149 N   0  0  0  0  0  0  0  0  0  0  0  0
    3.0372   -0.8580   -0.0085 C   0  0  0  0  0  0  0  0  0  0  0  0
    3.6302    0.3059   -0.3332 N   0  0  0  0  0  0  0  0  0  0  0  0
    4.9217    0.1072   -0.6156 C   0  0  0  0  0  0  0  0  0  0  0  0
    5.1393   -1.2025   -0.4648 N   0  0  0  0  0  0  0  0  0  0  0  0
    3.9953   -1.7957   -0.0952 N   0  0  0  0  0  0  0  0  0  0  0  0
   -1.3312    1.0302    0.3898 C   0  0  0  0  0  0  0  0  0  0  0  0
   -3.3931    2.6126    1.2829 H   0  0  0  0  0  0  0  0  0  0  0  0
   -4.3994    1.9859   -0.1398 H   0  0  0  0  0  0  0  0  0  0  0  0
   -2.7926    2.7280   -0.3937 H   0  0  0  0  0  0  0  0  0  0  0  0
   -4.2021   -0.5075   -0.1537 H   0  0  0  0  0  0  0  0  0  0  0  0
   -3.4290    0.3894   -1.4832 H   0  0  0  0  0  0  0  0  0  0  0  0
   -2.4617   -2.0514    0.0759 H   0  0  0  0  0  0  0  0  0  0  0  0
   -2.6388   -1.7839   -1.6810 H   0  0  0  0  0  0  0  0  0  0  0  0
   -0.7525   -0.4551   -1.7484 H   0  0  0  0  0  0  0  0  0  0  0  0
   -0.7622   -0.8562    1.1962 H   0  0  0  0  0  0  0  0  0  0  0  0
    1.1772    0.7401   -0.5465 H   0  0  0  0  0  0  0  0  0  0  0  0
    1.1709    0.7310    1.2258 H   0  0  0  0  0  0  0  0  0  0  0  0
    5.6393    0.8341   -0.9026 H   0  0  0  0  0  0  0  0  0  0  0  0
    6.0464   -1.6778   -0.6110 H   0  0  0  0  0  0  0  0  0  0  0  0
    3.8850   -2.8222    0.0911 H   0  0  0  0  0  0  0  0  0  0  0  0
   -1.1346    1.5854   -0.5595 H   0  0  0  0  0  0  0  0  0  0  0  0
   -0.9506    1.6051    1.2608 H   0  0  0  0  0  0  0  0  0  0  0  0
  1  2  1  0
  2  3  1  0
  3  4  1  0
  4  5  1  0
  5  6  1  0
  6  7  1  0
  7  8  1  0
  8  9  2  3
  9 10  1  0
 10 11  2  0
 11 12  1  0
 12 13  1  0
  6 14  1  0
 14  2  1  0
 13  9  1  0
  1 15  1  0
  1 16  1  0
  1 17  1  0
  3 18  1  0
  3 19  1  0
  4 20  1  0
  4 21  1  0
  5 22  1  0
  6 23  1  1
  7 24  1  0
  7 25  1  0
 11 26  1  0
 12 27  1  0
 13 28  1  0
 14 29  1  0
 14 30  1  0
M  END
$$$$

     RDKit          3D

 30 31  0  0  0  0  0  0  0  0999 V2000
   -3.8221   -0.0343    0.9946 C   0  0  0  0  0  0  0  0  0  0  0  0
   -3.0250   -0.2569   -0.2007 N   0  0  0  0  0  0  0  0  0  0  0  0
   -2.8369    1.0313   -0.8464 C   0  0  0  0  0  0  0  0  0  0  0  0
   -1.7837    1.7596   -0.0307 C   0  0  0  0  0  0  0  0  0  0  0  0
   -0.5038    1.2497   -0.4778 N   0  0  0  0  0  0  0  0  0  0  0  0
   -0.5938   -0.1763   -0.5676 C   0  0  1  0  0  0  0  0  0  0  0  0
    0.6864   -0.7560    0.0441 C   0  0  0  0  0  0  0  0  0  0  0  0
    1.8277   -0.2594   -0.7099 N   0  0  0  0  0  0  0  0  0  0  0  0
    3.0210   -0.5812   -0.3880 C   0  0  0  0  0  0  0  0  0  0  0  0
    3.3721   -1.3852    0.6433 N   0  0  0  0  0  0  0  0  0  0  0  0
    4.7134   -1.4855    0.6601 C   0  0  0  0  0  0  0  0  0  0  0  0
    5.1838   -0.7402   -0.3646 N   0  0  0  0  0  0  0  0  0  0  0  0
    4.1499   -0.1999   -0.9887 N   0  0  0  0  0  0  0  0  0  0  0  0
   -1.7410   -0.7541    0.2188 C   0  0  0  0  0  0  0  0  0  0  0  0
   -4.5783   -0.8554    1.1301 H   0  0  0  0  0  0  0  0  0  0  0  0
   -4.4269    0.9012    0.9273 H   0  0  0  0  0  0  0  0  0  0  0  0
   -3.2283    0.0360    1.9096 H   0  0  0  0  0  0  0  0  0  0  0  0
   -3.7790    1.6039   -0.9115 H   0  0  0  0  0  0  0  0  0  0  0  0
   -2.4387    0.8100   -1.8731 H   0  0  0  0  0  0  0  0  0  0  0  0
   -1.8607    2.8574   -0.1240 H   0  0  0  0  0  0  0  0  0  0  0  0
   -1.8644    1.5170    1.0546 H   0  0  0  0  0  0  0  0  0  0  0  0
    0.2889    1.5903    0.1043 H   0  0  0  0  0  0  0  0  0  0  0  0
   -0.6865   -0.5340   -1.6084 H   0  0  0  0  0  0  0  0  0  0  0  0
    0.7981   -0.4431    1.0962 H   0  0  0  0  0  0  0  0  0  0  0  0
    0.6863   -1.8534    0.0176 H   0  0  0  0  0  0  0  0  0  0  0  0
    5.2788   -2.0729    1.3868 H   0  0  0  0  0  0  0  0  0  0  0  0
    6.2075   -0.6258   -0.6039 H   0  0  0  0  0  0  0  0  0  0  0  0
    4.2350    0.4335   -1.8324 H   0  0  0  0  0  0  0  0  0  0  0  0
   -1.5452   -0.5546    1.2862 H   0  0  0  0  0  0  0  0  0  0  0  0
   -1.7348   -1.8510    0.0541 H   0  0  0  0  0  0  0  0  0  0  0  0
  1  2  1  0
  2  3  1  0
  3  4  1  0
  4  5  1  0
  5  6  1  0
  6  7  1  0
  7  8  1  0
  8  9  2  3
  9 10  1  0
 10 11  2  0
 11 12  1  0
 12 13  1  0
  6 14  1  0
 14  2  1  0
 13  9  1  0
  1 15  1  0
  1 16  1  0
  1 17  1  0
  3 18  1  0
  3 19  1  0
  4 20  1  0
  4 21  1  0
  5 22  1  0
  6 23  1  6
  7 24  1  0
  7 25  1  0
 11 26  1  0
 12 27  1  0
 13 28  1  0
 14 29  1  0
 14 30  1  0
M  END
$$$$

     RDKit          3D

 30 31  0  0  0  0  0  0  0  0999 V2000
   -3.7961    1.0673   -0.5001 C   0  0  0  0  0  0  0  0  0  0  0  0
   -2.6431    0.6864    0.2958 N   0  0  0  0  0  0  0  0  0  0  0  0
   -2.8659   -0.6391    0.7882 C   0  0  0  0  0  0  0  0  0  0  0  0
   -1.9045   -1.5507    0.0528 C   0  0  0  0  0  0  0  0  0  0  0  0
   -0.5864   -1.2098    0.5823 N   0  0  0  0  0  0  0  0  0  0  0  0
   -0.2591    0.0986    0.0679 C   0  0  1  0  0  0  0  0  0  0  0  0
    0.7067   -0.1310   -1.1021 C   0  0  0  0  0  0  0  0  0  0  0  0
    1.9041   -0.8149   -0.6506 N   0  0  0  0  0  0  0  0  0  0  0  0
    2.9937   -0.1886   -0.4610 C   0  0  0  0  0  0  0  0  0  0  0  0
    3.1825    1.1313   -0.6429 N   0  0  0  0  0  0  0  0  0  0  0  0
    4.4711    1.3643   -0.3288 C   0  0  0  0  0  0  0  0  0  0  0  0
    5.0346    0.1935    0.0342 N   0  0  0  0  0  0  0  0  0  0  0  0
    4.1321   -0.7675   -0.0444 N   0  0  0  0  0  0  0  0  0  0  0  0
   -1.4309    0.8690   -0.4264 C   0  0  0  0  0  0  0  0  0  0  0  0
   -3.5683    1.0331   -1.5863 H   0  0  0  0  0  0  0  0  0  0  0  0
   -4.6577    0.3691   -0.3475 H   0  0  0  0  0  0  0  0  0  0  0  0
   -4.1597    2.0892   -0.1970 H   0  0  0  0  0  0  0  0  0  0  0  0
   -2.6602   -0.7082    1.8663 H   0  0  0  0  0  0  0  0  0  0  0  0
   -3.9237   -0.9819    0.6270 H   0  0  0  0  0  0  0  0  0  0  0  0
   -2.1415   -2.6119    0.1799 H   0  0  0  0  0  0  0  0  0  0  0  0
   -1.8788   -1.3147   -1.0266 H   0  0  0  0  0  0  0  0  0  0  0  0
    0.1269   -1.9163    0.3632 H   0  0  0  0  0  0  0  0  0  0  0  0
    0.3073    0.6618    0.8378 H   0  0  0  0  0  0  0  0  0  0  0  0
    0.9277    0.8053   -1.6373 H   0  0  0  0  0  0  0  0  0  0  0  0
    0.2326   -0.8103   -1.8609 H   0  0  0  0  0  0  0  0  0  0  0  0
    4.9468    2.3223   -0.3674 H   0  0  0  0  0  0  0  0  0  0  0  0
    6.0146    0.0655    0.3273 H   0  0  0  0  0  0  0  0  0  0  0  0
    4.2712   -1.7745    0.1725 H   0  0  0  0  0  0  0  0  0  0  0  0
   -1.6127    0.6983   -1.5156 H   0  0  0  0  0  0  0  0  0  0  0  0
   -1.1632    1.9644   -0.3575 H   0  0  0  0  0  0  0  0  0  0  0  0
  1  2  1  0
  2  3  1  0
  3  4  1  0
  4  5  1  0
  5  6  1  0
  6  7  1  0
  7  8  1  0
  8  9  2  3
  9 10  1  0
 10 11  2  0
 11 12  1  0
 12 13  1  0
  6 14  1  0
 14  2  1  0
 13  9  1  0
  1 15  1  0
  1 16  1  0
  1 17  1  0
  3 18  1  0
  3 19  1  0
  4 20  1  0
  4 21  1  0
  5 22  1  0
  6 23  1  1
  7 24  1  0
  7 25  1  0
 11 26  1  0
 12 27  1  0
 13 28  1  0
 14 29  1  0
 14 30  1  0
M  END
$$$$

     RDKit          3D

 30 31  0  0  0  0  0  0  0  0999 V2000
   -3.3149   -0.9946    0.9587 C   0  0  0  0  0  0  0  0  0  0  0  0
   -2.8165    0.3435    0.7168 N   0  0  0  0  0  0  0  0  0  0  0  0
   -3.1228    0.8151   -0.6208 C   0  0  0  0  0  0  0  0  0  0  0  0
   -2.2906   -0.0253   -1.5729 C   0  0  0  0  0  0  0  0  0  0  0  0
   -0.9114    0.3678   -1.3788 N   0  0  0  0  0  0  0  0  0  0  0  0
   -0.5118   -0.0118   -0.0641 C   0  0  1  0  0  0  0  0  0  0  0  0
    0.8930    0.5502    0.1880 C   0  0  0  0  0  0  0  0  0  0  0  0
    1.7884   -0.0044   -0.7956 N   0  0  0  0  0  0  0  0  0  0  0  0
    3.0455   -0.2026   -0.5248 C   0  0  0  0  0  0  0  0  0  0  0  0
    3.9711   -0.7105   -1.3555 N   0  0  0  0  0  0  0  0  0  0  0  0
    5.1508   -0.7534   -0.6941 C   0  0  0  0  0  0  0  0  0  0  0  0
    4.9209   -0.2694    0.5306 N   0  0  0  0  0  0  0  0  0  0  0  0
    3.6429    0.0703    0.6485 N   0  0  0  0  0  0  0  0  0  0  0  0
   -1.4210    0.4866    1.0228 C   0  0  0  0  0  0  0  0  0  0  0  0
   -2.5724   -1.7828    0.7464 H   0  0  0  0  0  0  0  0  0  0  0  0
   -3.6825   -1.0780    2.0179 H   0  0  0  0  0  0  0  0  0  0  0  0
   -4.1952   -1.1361    0.2871 H   0  0  0  0  0  0  0  0  0  0  0  0
   -4.2055    0.7138   -0.8030 H   0  0  0  0  0  0  0  0  0  0  0  0
   -2.8231    1.8628   -0.6944 H   0  0  0  0  0  0  0  0  0  0  0  0
   -2.6330    0.0276   -2.6029 H   0  0  0  0  0  0  0  0  0  0  0  0
   -2.3785   -1.0801   -1.2169 H   0  0  0  0  0  0  0  0  0  0  0  0
   -0.7177    1.3447   -1.6337 H   0  0  0  0  0  0  0  0  0  0  0  0
   -0.4017   -1.1237   -0.0400 H   0  0  0  0  0  0  0  0  0  0  0  0
    0.8337    1.6589    0.0640 H   0  0  0  0  0  0  0  0  0  0  0  0
    1.1987    0.2909    1.2129 H   0  0  0  0  0  0  0  0  0  0  0  0
    6.1033   -1.1124   -1.0831 H   0  0  0  0  0  0  0  0  0  0  0  0
    5.6345   -0.1671    1.2957 H   0  0  0  0  0  0  0  0  0  0  0  0
    3.2095    0.4723    1.5046 H   0  0  0  0  0  0  0  0  0  0  0  0
   -1.1952    1.5436    1.2063 H   0  0  0  0  0  0  0  0  0  0  0  0
   -1.1985   -0.0958    1.9420 H   0  0  0  0  0  0  0  0  0  0  0  0
  1  2  1  0
  2  3  1  0
  3  4  1  0
  4  5  1  0
  5  6  1  0
  6  7  1  0
  7  8  1  0
  8  9  2  3
  9 10  1  0
 10 11  2  0
 11 12  1  0
 12 13  1  0
  6 14  1  0
 14  2  1  0
 13  9  1  0
  1 15  1  0
  1 16  1  0
  1 17  1  0
  3 18  1  0
  3 19  1  0
  4 20  1  0
  4 21  1  0
  5 22  1  0
  6 23  1  6
  7 24  1  0
  7 25  1  0
 11 26  1  0
 12 27  1  0
 13 28  1  0
 14 29  1  0
 14 30  1  0
M  END
$$$$

     RDKit          3D

 30 31  0  0  0  0  0  0  0  0999 V2000
   -3.4631   -1.4055   -0.1433 C   0  0  0  0  0  0  0  0  0  0  0  0
   -2.6240   -0.5472    0.6237 N   0  0  0  0  0  0  0  0  0  0  0  0
   -2.9599    0.8368    0.5670 C   0  0  0  0  0  0  0  0  0  0  0  0
   -2.0272    1.6654   -0.2588 C   0  0  0  0  0  0  0  0  0  0  0  0
   -1.2653    0.9046   -1.2045 N   0  0  0  0  0  0  0  0  0  0  0  0
   -0.5163   -0.1618   -0.5885 C   0  0  1  0  0  0  0  0  0  0  0  0
    0.8356    0.3920   -0.1906 C   0  0  0  0  0  0  0  0  0  0  0  0
    1.6705   -0.5925    0.4371 N   0  0  0  0  0  0  0  0  0  0  0  0
    2.9632   -0.4876    0.3633 C   0  0  0  0  0  0  0  0  0  0  0  0
    3.8802   -1.3182    0.8919 N   0  0  0  0  0  0  0  0  0  0  0  0
    5.1240   -0.8953    0.6142 C   0  0  0  0  0  0  0  0  0  0  0  0
    4.9779    0.2293   -0.1069 N   0  0  0  0  0  0  0  0  0  0  0  0
    3.6885    0.4774   -0.2597 N   0  0  0  0  0  0  0  0  0  0  0  0
   -1.2286   -0.8369    0.5350 C   0  0  0  0  0  0  0  0  0  0  0  0
   -4.5218   -1.1349    0.0782 H   0  0  0  0  0  0  0  0  0  0  0  0
   -3.3182   -1.3367   -1.2403 H   0  0  0  0  0  0  0  0  0  0  0  0
   -3.3116   -2.4522    0.1718 H   0  0  0  0  0  0  0  0  0  0  0  0
   -3.0296    1.2238    1.6123 H   0  0  0  0  0  0  0  0  0  0  0  0
   -3.9785    0.9342    0.1373 H   0  0  0  0  0  0  0  0  0  0  0  0
   -1.3922    2.2559    0.4271 H   0  0  0  0  0  0  0  0  0  0  0  0
   -2.6080    2.4266   -0.8520 H   0  0  0  0  0  0  0  0  0  0  0  0
   -1.8674    0.5722   -1.9748 H   0  0  0  0  0  0  0  0  0  0  0  0
   -0.3079   -0.9079   -1.4108 H   0  0  0  0  0  0  0  0  0  0  0  0
    0.7567    1.2702    0.4805 H   0  0  0  0  0  0  0  0  0  0  0  0
    1.3164    0.7541   -1.1272 H   0  0  0  0  0  0  0  0  0  0  0  0
    6.0777   -1.3589    0.9070 H   0  0  0  0  0  0  0  0  0  0  0  0
    5.7717    0.7960   -0.4747 H   0  0  0  0  0  0  0  0  0  0  0  0
    3.2553    1.2801   -0.7728 H   0  0  0  0  0  0  0  0  0  0  0  0
   -1.1348   -1.9539    0.4074 H   0  0  0  0  0  0  0  0  0  0  0  0
   -0.7633   -0.6291    1.5261 H   0  0  0  0  0  0  0  0  0  0  0  0
  1  2  1  0
  2  3  1  0
  3  4  1  0
  4  5  1  0
  5  6  1  0
  6  7  1  0
  7  8  1  0
  8  9  2  3
  9 10  1  0
 10 11  2  0
 11 12  1  0
 12 13  1  0
  6 14  1  0
 14  2  1  0
 13  9  1  0
  1 15  1  0
  1 16  1  0
  1 17  1  0
  3 18  1  0
  3 19  1  0
  4 20  1  0
  4 21  1  0
  5 22  1  0
  6 23  1  6
  7 24  1  0
  7 25  1  0
 11 26  1  0
 12 27  1  0
 13 28  1  0
 14 29  1  0
 14 30  1  0
M  END
$$$$

     RDKit          3D

 30 31  0  0  0  0  0  0  0  0999 V2000
   -3.6805    1.2451   -0.0715 C   0  0  0  0  0  0  0  0  0  0  0  0
   -2.9221    0.2344   -0.7801 N   0  0  0  0  0  0  0  0  0  0  0  0
   -2.7922   -0.9881   -0.0282 C   0  0  0  0  0  0  0  0  0  0  0  0
   -1.3640   -1.3044    0.3312 C   0  0  0  0  0  0  0  0  0  0  0  0
   -0.7623   -0.1175    0.8595 N   0  0  0  0  0  0  0  0  0  0  0  0
   -0.6170    0.8611   -0.1967 C   0  0  1  0  0  0  0  0  0  0  0  0
    0.7770    0.6860   -0.7805 C   0  0  0  0  0  0  0  0  0  0  0  0
    1.8007    0.8885    0.1987 N   0  0  0  0  0  0  0  0  0  0  0  0
    2.9307    0.2758    0.1428 C   0  0  0  0  0  0  0  0  0  0  0  0
    3.9598    0.3845    0.9983 N   0  0  0  0  0  0  0  0  0  0  0  0
    4.9764   -0.4178    0.6066 C   0  0  0  0  0  0  0  0  0  0  0  0
    4.5584   -1.0300   -0.5130 N   0  0  0  0  0  0  0  0  0  0  0  0
    3.3302   -0.6086   -0.7847 N   0  0  0  0  0  0  0  0  0  0  0  0
   -1.6644    0.7559   -1.2483 C   0  0  0  0  0  0  0  0  0  0  0  0
   -3.0963    2.1971   -0.0642 H   0  0  0  0  0  0  0  0  0  0  0  0
   -4.6794    1.3500   -0.5083 H   0  0  0  0  0  0  0  0  0  0  0  0
   -3.8157    0.8764    0.9781 H   0  0  0  0  0  0  0  0  0  0  0  0
   -3.2705   -1.8477   -0.5651 H   0  0  0  0  0  0  0  0  0  0  0  0
   -3.3518   -0.8600    0.9215 H   0  0  0  0  0  0  0  0  0  0  0  0
   -0.8348   -1.7332   -0.5402 H   0  0  0  0  0  0  0  0  0  0  0  0
   -1.3974   -2.0624    1.1573 H   0  0  0  0  0  0  0  0  0  0  0  0
    0.1626   -0.3430    1.2499 H   0  0  0  0  0  0  0  0  0  0  0  0
   -0.6180    1.8589    0.2959 H   0  0  0  0  0  0  0  0  0  0  0  0
    0.8352   -0.3657   -1.1304 H   0  0  0  0  0  0  0  0  0  0  0  0
    0.9224    1.3222   -1.6792 H   0  0  0  0  0  0  0  0  0  0  0  0
    5.9464   -0.5439    1.1022 H   0  0  0  0  0  0  0  0  0  0  0  0
    5.0921   -1.7186   -1.0822 H   0  0  0  0  0  0  0  0  0  0  0  0
    2.7465   -0.9227   -1.6131 H   0  0  0  0  0  0  0  0  0  0  0  0
   -1.8618    1.7729   -1.6556 H   0  0  0  0  0  0  0  0  0  0  0  0
   -1.3101    0.1547   -2.1259 H   0  0  0  0  0  0  0  0  0  0  0  0
  1  2  1  0
  2  3  1  0
  3  4  1  0
  4  5  1  0
  5  6  1  0
  6  7  1  0
  7  8  1  0
  8  9  2  3
  9 10  1  0
 10 11  2  0
 11 12  1  0
 12 13  1  0
  6 14  1  0
 14  2  1  0
 13  9  1  0
  1 15  1  0
  1 16  1  0
  1 17  1  0
  3 18  1  0
  3 19  1  0
  4 20  1  0
  4 21  1  0
  5 22  1  0
  6 23  1  1
  7 24  1  0
  7 25  1  0
 11 26  1  0
 12 27  1  0
 13 28  1  0
 14 29  1  0
 14 30  1  0
M  END
$$$$
