
     RDKit          3D

 27 27  0  0  0  0  0  0  0  0999 V2000
   -4.4179    0.9518    0.8286 N   0  0  0  0  0  0  0  0  0  0  0  0
   -3.2626    1.1663    1.6380 C   0  0  0  0  0  0  0  0  0  0  0  0
   -2.0824    0.4744    0.9975 C   0  0  0  0  0  0  0  0  0  0  0  0
   -2.2644   -0.1774   -0.1253 C   0  0  0  0  0  0  0  0  0  0  0  0
   -1.1443   -0.8493   -0.7576 C   0  0  0  0  0  0  0  0  0  0  0  0
   -1.3612   -1.4642   -1.8350 O   0  0  0  0  0  0  0  0  0  0  0  0
    0.1661   -0.8447   -0.2243 N   0  0  0  0  0  0  0  0  0  0  0  0
    1.1923   -1.5630   -0.9690 C   0  0  0  0  0  0  0  0  0  0  0  0
    2.5291   -1.4867   -0.3097 C   0  0  0  0  0  0  0  0  0  0  0  0
    2.9698   -0.0580   -0.1949 C   0  0  0  0  0  0  0  0  0  0  0  0
    2.2762    1.0529   -0.6239 C   0  0  0  0  0  0  0  0  0  0  0  0
    3.0456    2.1121   -0.3170 N   0  0  0  0  0  0  0  0  0  0  0  0
    4.1593    1.7100    0.2700 N   0  0  0  0  0  0  0  0  0  0  0  0
    4.1185    0.3942    0.3466 N   0  0  0  0  0  0  0  0  0  0  0  0
   -4.3812    1.4782   -0.0656 H   0  0  0  0  0  0  0  0  0  0  0  0
   -5.3242    1.0366    1.3310 H   0  0  0  0  0  0  0  0  0  0  0  0
   -3.3920    0.7747    2.6460 H   0  0  0  0  0  0  0  0  0  0  0  0
   -2.9883    2.2527    1.6311 H   0  0  0  0  0  0  0  0  0  0  0  0
   -1.1269    0.5397    1.4865 H   0  0  0  0  0  0  0  0  0  0  0  0
   -3.2650   -0.1980   -0.5603 H   0  0  0  0  0  0  0  0  0  0  0  0
    0.4200   -0.3576    0.6620 H   0  0  0  0  0  0  0  0  0  0  0  0
    0.8803   -2.6325   -1.0028 H   0  0  0  0  0  0  0  0  0  0  0  0
    1.2841   -1.1124   -1.9789 H   0  0  0  0  0  0  0  0  0  0  0  0
    3.2575   -2.0091   -0.9583 H   0  0  0  0  0  0  0  0  0  0  0  0
    2.5639   -1.9772    0.6805 H   0  0  0  0  0  0  0  0  0  0  0  0
    1.3017    1.0458   -1.1113 H   0  0  0  0  0  0  0  0  0  0  0  0
    4.8459   -0.2592    0.7589 H   0  0  0  0  0  0  0  0  0  0  0  0
  1  2  1  0
  2  3  1  0
  3  4  2  0
  4  5  1  0
  5  6  2  0
  5  7  1  0
  7  8  1  0
  8  9  1  0
  9 10  1  0
 10 11  2  0
 11 12  1  0
 12 13  2  0
 13 14  1  0
 14 10  1  0
  1 15  1  0
  1 16  1  0
  2 17  1  0
  2 18  1  0
  3 19  1  0
  4 20  1  0
  7 21  1  0
  8 22  1  0
  8 23  1  0
  9 24  1  0
  9 25  1  0
 11 26  1  0
 14 27  1  0
M  END
$$$$

     RDKit          3D

 27 27  0  0  0  0  0  0  0  0999 V2000
    3.8574   -1.7340    0.6170 N   0  0  0  0  0  0  0  0  0  0  0  0
    3.8374   -0.3554    0.2335 C   0  0  0  0  0  0  0  0  0  0  0  0
    2.4320    0.1671    0.3104 C   0  0  0  0  0  0  0  0  0  0  0  0
    1.8037    0.6556   -0.7423 C   0  0  0  0  0  0  0  0  0  0  0  0
    0.4537    1.1729   -0.7336 C   0  0  0  0  0  0  0  0  0  0  0  0
   -0.0330    1.6102   -1.8004 O   0  0  0  0  0  0  0  0  0  0  0  0
   -0.3330    1.2025    0.4311 N   0  0  0  0  0  0  0  0  0  0  0  0
   -1.6749    1.7276    0.3920 C   0  0  0  0  0  0  0  0  0  0  0  0
   -2.5736    0.9696   -0.5634 C   0  0  0  0  0  0  0  0  0  0  0  0
   -2.6857   -0.4621   -0.1836 C   0  0  0  0  0  0  0  0  0  0  0  0
   -3.6188   -1.0215    0.6594 C   0  0  0  0  0  0  0  0  0  0  0  0
   -3.3288   -2.3344    0.7008 N   0  0  0  0  0  0  0  0  0  0  0  0
   -2.2837   -2.5631   -0.0688 N   0  0  0  0  0  0  0  0  0  0  0  0
   -1.8790   -1.4456   -0.6129 N   0  0  0  0  0  0  0  0  0  0  0  0
    3.3529   -2.3725   -0.0047 H   0  0  0  0  0  0  0  0  0  0  0  0
    4.7823   -2.0749    0.9413 H   0  0  0  0  0  0  0  0  0  0  0  0
    4.4804    0.1965    0.9756 H   0  0  0  0  0  0  0  0  0  0  0  0
    4.2872   -0.1660   -0.7478 H   0  0  0  0  0  0  0  0  0  0  0  0
    1.9120    0.1467    1.2511 H   0  0  0  0  0  0  0  0  0  0  0  0
    2.3891    0.6502   -1.6801 H   0  0  0  0  0  0  0  0  0  0  0  0
    0.0349    0.8496    1.3337 H   0  0  0  0  0  0  0  0  0  0  0  0
   -1.6524    2.7865    0.0718 H   0  0  0  0  0  0  0  0  0  0  0  0
   -2.1727    1.7081    1.3767 H   0  0  0  0  0  0  0  0  0  0  0  0
   -2.3076    1.1145   -1.6233 H   0  0  0  0  0  0  0  0  0  0  0  0
   -3.5930    1.4402   -0.4490 H   0  0  0  0  0  0  0  0  0  0  0  0
   -4.4345   -0.5132    1.1928 H   0  0  0  0  0  0  0  0  0  0  0  0
   -1.0522   -1.3551   -1.2772 H   0  0  0  0  0  0  0  0  0  0  0  0
  1  2  1  0
  2  3  1  0
  3  4  2  0
  4  5  1  0
  5  6  2  0
  5  7  1  0
  7  8  1  0
  8  9  1  0
  9 10  1  0
 10 11  2  0
 11 12  1  0
 12 13  2  0
 13 14  1  0
 14 10  1  0
  1 15  1  0
  1 16  1  0
  2 17  1  0
  2 18  1  0
  3 19  1  0
  4 20  1  0
  7 21  1  0
  8 22  1  0
  8 23  1  0
  9 24  1  0
  9 25  1  0
 11 26  1  0
 14 27  1  0
M  END
$$$$

     RDKit          3D

 27 27  0  0  0  0  0  0  0  0999 V2000
    4.8054    0.7448   -0.2843 N   0  0  0  0  0  0  0  0  0  0  0  0
    4.8180   -0.6833   -0.1923 C   0  0  0  0  0  0  0  0  0  0  0  0
    3.4125   -1.1955   -0.1279 C   0  0  0  0  0  0  0  0  0  0  0  0
    2.4062   -0.3555   -0.1598 C   0  0  0  0  0  0  0  0  0  0  0  0
    1.0160   -0.8556   -0.0965 C   0  0  0  0  0  0  0  0  0  0  0  0
    0.7727   -2.0768   -0.0122 O   0  0  0  0  0  0  0  0  0  0  0  0
   -0.0647    0.0656   -0.1319 N   0  0  0  0  0  0  0  0  0  0  0  0
   -1.4528   -0.3629   -0.0734 C   0  0  0  0  0  0  0  0  0  0  0  0
   -2.3146    0.8610   -0.1332 C   0  0  0  0  0  0  0  0  0  0  0  0
   -3.7497    0.5782   -0.0830 C   0  0  0  0  0  0  0  0  0  0  0  0
   -4.7315    1.5418   -0.1234 C   0  0  0  0  0  0  0  0  0  0  0  0
   -5.9094    0.9364   -0.0581 N   0  0  0  0  0  0  0  0  0  0  0  0
   -5.6774   -0.3507    0.0198 N   0  0  0  0  0  0  0  0  0  0  0  0
   -4.3809   -0.6038    0.0073 N   0  0  0  0  0  0  0  0  0  0  0  0
    5.6598    1.1557   -0.7202 H   0  0  0  0  0  0  0  0  0  0  0  0
    4.5748    1.2177    0.6150 H   0  0  0  0  0  0  0  0  0  0  0  0
    5.2425   -1.0776   -1.1430 H   0  0  0  0  0  0  0  0  0  0  0  0
    5.4175   -1.0676    0.6727 H   0  0  0  0  0  0  0  0  0  0  0  0
    3.2575   -2.2583   -0.0558 H   0  0  0  0  0  0  0  0  0  0  0  0
    2.6024    0.7044   -0.2326 H   0  0  0  0  0  0  0  0  0  0  0  0
    0.2033    1.0898   -0.2040 H   0  0  0  0  0  0  0  0  0  0  0  0
   -1.6390   -1.0602   -0.9158 H   0  0  0  0  0  0  0  0  0  0  0  0
   -1.6425   -0.9364    0.8596 H   0  0  0  0  0  0  0  0  0  0  0  0
   -2.0599    1.4798    0.7673 H   0  0  0  0  0  0  0  0  0  0  0  0
   -2.0407    1.4463   -1.0414 H   0  0  0  0  0  0  0  0  0  0  0  0
   -4.5910    2.6314   -0.1968 H   0  0  0  0  0  0  0  0  0  0  0  0
   -3.9347   -1.5690    0.0597 H   0  0  0  0  0  0  0  0  0  0  0  0
  1  2  1  0
  2  3  1  0
  3  4  2  0
  4  5  1  0
  5  6  2  0
  5  7  1  0
  7  8  1  0
  8  9  1  0
  9 10  1  0
 10 11  2  0
 11 12  1  0
 12 13  2  0
 13 14  1  0
 14 10  1  0
  1 15  1  0
  1 16  1  0
  2 17  1  0
  2 18  1  0
  3 19  1  0
  4 20  1  0
  7 21  1  0
  8 22  1  0
  8 23  1  0
  9 24  1  0
  9 25  1  0
 11 26  1  0
 14 27  1  0
M  END
$$$$

     RDKit          3D

 27 27  0  0  0  0  0  0  0  0999 V2000
    3.8533    0.0736   -2.4778 N   0  0  0  0  0  0  0  0  0  0  0  0
    3.7880    0.7455   -1.1810 C   0  0  0  0  0  0  0  0  0  0  0  0
    2.5624    0.2280   -0.4882 C   0  0  0  0  0  0  0  0  0  0  0  0
    1.5787    0.9846   -0.1143 C   0  0  0  0  0  0  0  0  0  0  0  0
    0.3798    0.5107    0.5584 C   0  0  0  0  0  0  0  0  0  0  0  0
   -0.5314    1.3505    0.8828 O   0  0  0  0  0  0  0  0  0  0  0  0
    0.1238   -0.8380    0.8962 N   0  0  0  0  0  0  0  0  0  0  0  0
   -1.0322   -1.3794    1.5355 C   0  0  0  0  0  0  0  0  0  0  0  0
   -2.3257   -1.3310    0.8326 C   0  0  0  0  0  0  0  0  0  0  0  0
   -2.9020   -0.0817    0.4100 C   0  0  0  0  0  0  0  0  0  0  0  0
   -3.7101    0.8073    1.1296 C   0  0  0  0  0  0  0  0  0  0  0  0
   -4.0396    1.8034    0.2960 N   0  0  0  0  0  0  0  0  0  0  0  0
   -3.4883    1.5808   -0.8780 N   0  0  0  0  0  0  0  0  0  0  0  0
   -2.7982    0.4555   -0.8412 N   0  0  0  0  0  0  0  0  0  0  0  0
    4.4992    0.6043   -3.1105 H   0  0  0  0  0  0  0  0  0  0  0  0
    4.1123   -0.9136   -2.3753 H   0  0  0  0  0  0  0  0  0  0  0  0
    3.7616    1.8361   -1.3013 H   0  0  0  0  0  0  0  0  0  0  0  0
    4.6529    0.4513   -0.5503 H   0  0  0  0  0  0  0  0  0  0  0  0
    2.5403   -0.8206   -0.3142 H   0  0  0  0  0  0  0  0  0  0  0  0
    1.6567    2.0487   -0.3187 H   0  0  0  0  0  0  0  0  0  0  0  0
    0.9217   -1.5022    0.6205 H   0  0  0  0  0  0  0  0  0  0  0  0
   -0.8281   -2.4743    1.7826 H   0  0  0  0  0  0  0  0  0  0  0  0
   -1.1840   -0.9435    2.5641 H   0  0  0  0  0  0  0  0  0  0  0  0
   -2.2417   -1.9832   -0.1032 H   0  0  0  0  0  0  0  0  0  0  0  0
   -3.1128   -1.9207    1.4271 H   0  0  0  0  0  0  0  0  0  0  0  0
   -3.9575    0.6272    2.1546 H   0  0  0  0  0  0  0  0  0  0  0  0
   -2.2793    0.0808   -1.6520 H   0  0  0  0  0  0  0  0  0  0  0  0
  1  2  1  0
  2  3  1  0
  3  4  2  0
  4  5  1  0
  5  6  2  0
  5  7  1  0
  7  8  1  0
  8  9  1  0
  9 10  1  0
 10 11  2  0
 11 12  1  0
 12 13  2  0
 13 14  1  0
 14 10  1  0
  1 15  1  0
  1 16  1  0
  2 17  1  0
  2 18  1  0
  3 19  1  0
  4 20  1  0
  7 21  1  0
  8 22  1  0
  8 23  1  0
  9 24  1  0
  9 25  1  0
 11 26  1  0
 14 27  1  0
M  END
$$$$

     RDKit          3D

 27 27  0  0  0  0  0  0  0  0999 V2000
    5.2353    0.2934   -0.2995 N   0  0  0  0  0  0  0  0  0  0  0  0
    4.2976   -0.2023   -1.2786 C   0  0  0  0  0  0  0  0  0  0  0  0
    2.8955   -0.1038   -0.8272 C   0  0  0  0  0  0  0  0  0  0  0  0
    2.5791    0.3925    0.3559 C   0  0  0  0  0  0  0  0  0  0  0  0
    1.2102    0.5022    0.8274 C   0  0  0  0  0  0  0  0  0  0  0  0
    0.9981    0.9861    1.9656 O   0  0  0  0  0  0  0  0  0  0  0  0
    0.0875    0.0892    0.0668 N   0  0  0  0  0  0  0  0  0  0  0  0
   -1.2223    0.2397    0.6218 C   0  0  0  0  0  0  0  0  0  0  0  0
   -2.2371   -0.2686   -0.3739 C   0  0  0  0  0  0  0  0  0  0  0  0
   -3.6304   -0.1434    0.1368 C   0  0  0  0  0  0  0  0  0  0  0  0
   -4.3339   -1.0815    0.8624 C   0  0  0  0  0  0  0  0  0  0  0  0
   -5.5539   -0.5964    1.1341 N   0  0  0  0  0  0  0  0  0  0  0  0
   -5.6293    0.6246    0.5945 N   0  0  0  0  0  0  0  0  0  0  0  0
   -4.4690    0.9023   -0.0092 N   0  0  0  0  0  0  0  0  0  0  0  0
    5.1924   -0.2173    0.6034 H   0  0  0  0  0  0  0  0  0  0  0  0
    5.0668    1.3205   -0.2073 H   0  0  0  0  0  0  0  0  0  0  0  0
    4.5489   -1.2144   -1.6421 H   0  0  0  0  0  0  0  0  0  0  0  0
    4.4112    0.4686   -2.1797 H   0  0  0  0  0  0  0  0  0  0  0  0
    2.1324   -0.4545   -1.5039 H   0  0  0  0  0  0  0  0  0  0  0  0
    3.4153    0.7181    0.9635 H   0  0  0  0  0  0  0  0  0  0  0  0
    0.2098   -0.3198   -0.8859 H   0  0  0  0  0  0  0  0  0  0  0  0
   -1.4690    1.3123    0.8181 H   0  0  0  0  0  0  0  0  0  0  0  0
   -1.3593   -0.3252    1.5744 H   0  0  0  0  0  0  0  0  0  0  0  0
   -2.1449    0.3120   -1.3299 H   0  0  0  0  0  0  0  0  0  0  0  0
   -2.0443   -1.3315   -0.6257 H   0  0  0  0  0  0  0  0  0  0  0  0
   -3.9303   -2.0496    1.1498 H   0  0  0  0  0  0  0  0  0  0  0  0
   -4.2564    1.7918   -0.5116 H   0  0  0  0  0  0  0  0  0  0  0  0
  1  2  1  0
  2  3  1  0
  3  4  2  0
  4  5  1  0
  5  6  2  0
  5  7  1  0
  7  8  1  0
  8  9  1  0
  9 10  1  0
 10 11  2  0
 11 12  1  0
 12 13  2  0
 13 14  1  0
 14 10  1  0
  1 15  1  0
  1 16  1  0
  2 17  1  0
  2 18  1  0
  3 19  1  0
  4 20  1  0
  7 21  1  0
  8 22  1  0
  8 23  1  0
  9 24  1  0
  9 25  1  0
 11 26  1  0
 14 27  1  0
M  END
$$$$

     RDKit          3D

 27 27  0  0  0  0  0  0  0  0999 V2000
    5.2344    0.0977    0.5397 N   0  0  0  0  0  0  0  0  0  0  0  0
    4.1368   -0.7792    0.9177 C   0  0  0  0  0  0  0  0  0  0  0  0
    3.0694   -0.6178   -0.1266 C   0  0  0  0  0  0  0  0  0  0  0  0
    1.8835   -0.1877    0.2706 C   0  0  0  0  0  0  0  0  0  0  0  0
    0.7970   -0.0091   -0.7036 C   0  0  0  0  0  0  0  0  0  0  0  0
    1.0028   -0.2662   -1.9051 O   0  0  0  0  0  0  0  0  0  0  0  0
   -0.4668    0.4550   -0.2447 N   0  0  0  0  0  0  0  0  0  0  0  0
   -1.5120    0.6204   -1.2213 C   0  0  0  0  0  0  0  0  0  0  0  0
   -2.7939    1.1176   -0.5920 C   0  0  0  0  0  0  0  0  0  0  0  0
   -3.2828    0.1600    0.4319 C   0  0  0  0  0  0  0  0  0  0  0  0
   -4.3954    0.2568    1.2076 C   0  0  0  0  0  0  0  0  0  0  0  0
   -4.4486   -0.8343    1.9927 N   0  0  0  0  0  0  0  0  0  0  0  0
   -3.4013   -1.5908    1.7168 N   0  0  0  0  0  0  0  0  0  0  0  0
   -2.6868   -0.9981    0.7716 N   0  0  0  0  0  0  0  0  0  0  0  0
    4.9233    1.0714    0.8062 H   0  0  0  0  0  0  0  0  0  0  0  0
    5.2747    0.1086   -0.5084 H   0  0  0  0  0  0  0  0  0  0  0  0
    3.7422   -0.5691    1.9153 H   0  0  0  0  0  0  0  0  0  0  0  0
    4.5469   -1.8213    0.8335 H   0  0  0  0  0  0  0  0  0  0  0  0
    3.2851   -0.8518   -1.1658 H   0  0  0  0  0  0  0  0  0  0  0  0
    1.7303    0.0284    1.3189 H   0  0  0  0  0  0  0  0  0  0  0  0
   -0.5723    0.6516    0.7737 H   0  0  0  0  0  0  0  0  0  0  0  0
   -1.1344    1.3251   -1.9884 H   0  0  0  0  0  0  0  0  0  0  0  0
   -1.7478   -0.3265   -1.7649 H   0  0  0  0  0  0  0  0  0  0  0  0
   -3.5600    1.1171   -1.4109 H   0  0  0  0  0  0  0  0  0  0  0  0
   -2.7256    2.1474   -0.2218 H   0  0  0  0  0  0  0  0  0  0  0  0
   -5.0859    1.0978    1.1559 H   0  0  0  0  0  0  0  0  0  0  0  0
   -1.8126   -1.4028    0.3864 H   0  0  0  0  0  0  0  0  0  0  0  0
  1  2  1  0
  2  3  1  0
  3  4  2  0
  4  5  1  0
  5  6  2  0
  5  7  1  0
  7  8  1  0
  8  9  1  0
  9 10  1  0
 10 11  2  0
 11 12  1  0
 12 13  2  0
 13 14  1  0
 14 10  1  0
  1 15  1  0
  1 16  1  0
  2 17  1  0
  2 18  1  0
  3 19  1  0
  4 20  1  0
  7 21  1  0
  8 22  1  0
  8 23  1  0
  9 24  1  0
  9 25  1  0
 11 26  1  0
 14 27  1  0
M  END
$$$$

     RDKit          3D

 27 27  0  0  0  0  0  0  0  0999 V2000
    5.1318   -0.8420    0.9761 N   0  0  0  0  0  0  0  0  0  0  0  0
    4.4062   -0.7397   -0.2851 C   0  0  0  0  0  0  0  0  0  0  0  0
    2.9404   -0.5955   -0.0412 C   0  0  0  0  0  0  0  0  0  0  0  0
    2.2830    0.4678   -0.4673 C   0  0  0  0  0  0  0  0  0  0  0  0
    0.8584    0.6418   -0.2484 C   0  0  0  0  0  0  0  0  0  0  0  0
    0.2982    1.6832   -0.6842 O   0  0  0  0  0  0  0  0  0  0  0  0
    0.0291   -0.2918    0.4340 N   0  0  0  0  0  0  0  0  0  0  0  0
   -1.3673   -0.0407    0.6053 C   0  0  0  0  0  0  0  0  0  0  0  0
   -2.1343    0.1126   -0.6581 C   0  0  0  0  0  0  0  0  0  0  0  0
   -3.5716    0.3687   -0.2829 C   0  0  0  0  0  0  0  0  0  0  0  0
   -4.1089    0.4517    0.9835 C   0  0  0  0  0  0  0  0  0  0  0  0
   -5.4219    0.6914    0.8174 N   0  0  0  0  0  0  0  0  0  0  0  0
   -5.7126    0.7585   -0.4680 N   0  0  0  0  0  0  0  0  0  0  0  0
   -4.5914    0.5630   -1.1368 N   0  0  0  0  0  0  0  0  0  0  0  0
    6.1401   -0.9467    0.7333 H   0  0  0  0  0  0  0  0  0  0  0  0
    4.9553   -0.0060    1.5460 H   0  0  0  0  0  0  0  0  0  0  0  0
    4.8153    0.1313   -0.8295 H   0  0  0  0  0  0  0  0  0  0  0  0
    4.5458   -1.6394   -0.8996 H   0  0  0  0  0  0  0  0  0  0  0  0
    2.4626   -1.3930    0.4912 H   0  0  0  0  0  0  0  0  0  0  0  0
    2.8306    1.2316   -0.9969 H   0  0  0  0  0  0  0  0  0  0  0  0
    0.4883   -1.1515    0.7943 H   0  0  0  0  0  0  0  0  0  0  0  0
   -1.8179   -0.9140    1.1627 H   0  0  0  0  0  0  0  0  0  0  0  0
   -1.5799    0.8381    1.2750 H   0  0  0  0  0  0  0  0  0  0  0  0
   -2.0423   -0.8226   -1.2407 H   0  0  0  0  0  0  0  0  0  0  0  0
   -1.8307    0.9360   -1.2958 H   0  0  0  0  0  0  0  0  0  0  0  0
   -3.5519    0.3404    1.9067 H   0  0  0  0  0  0  0  0  0  0  0  0
   -4.4545    0.5501   -2.1908 H   0  0  0  0  0  0  0  0  0  0  0  0
  1  2  1  0
  2  3  1  0
  3  4  2  0
  4  5  1  0
  5  6  2  0
  5  7  1  0
  7  8  1  0
  8  9  1  0
  9 10  1  0
 10 11  2  0
 11 12  1  0
 12 13  2  0
 13 14  1  0
 14 10  1  0
  1 15  1  0
  1 16  1  0
  2 17  1  0
  2 18  1  0
  3 19  1  0
  4 20  1  0
  7 21  1  0
  8 22  1  0
  8 23  1  0
  9 24  1  0
  9 25  1  0
 11 26  1  0
 14 27  1  0
M  END
$$$$

     RDKit          3D

 27 27  0  0  0  0  0  0  0  0999 V2000
    4.4566   -1.3169    0.7654 N   0  0  0  0  0  0  0  0  0  0  0  0
    3.9067   -0.9036   -0.5067 C   0  0  0  0  0  0  0  0  0  0  0  0
    2.5957   -0.2137   -0.3103 C   0  0  0  0  0  0  0  0  0  0  0  0
    1.5108   -0.6724   -0.8465 C   0  0  0  0  0  0  0  0  0  0  0  0
    0.2084   -0.0478   -0.6926 C   0  0  0  0  0  0  0  0  0  0  0  0
   -0.8033   -0.5557   -1.2467 O   0  0  0  0  0  0  0  0  0  0  0  0
   -0.0068    1.1275    0.0601 N   0  0  0  0  0  0  0  0  0  0  0  0
   -1.2036    1.8173    0.3036 C   0  0  0  0  0  0  0  0  0  0  0  0
   -2.3007    1.2578    1.0804 C   0  0  0  0  0  0  0  0  0  0  0  0
   -2.8809    0.0063    0.5970 C   0  0  0  0  0  0  0  0  0  0  0  0
   -3.8762   -0.1032   -0.3508 C   0  0  0  0  0  0  0  0  0  0  0  0
   -4.1914   -1.4022   -0.5037 N   0  0  0  0  0  0  0  0  0  0  0  0
   -3.4175   -2.0833    0.3225 N   0  0  0  0  0  0  0  0  0  0  0  0
   -2.6292   -1.2681    0.9883 N   0  0  0  0  0  0  0  0  0  0  0  0
    3.8179   -1.0046    1.5131 H   0  0  0  0  0  0  0  0  0  0  0  0
    5.3832   -0.8680    0.9598 H   0  0  0  0  0  0  0  0  0  0  0  0
    3.8605   -1.7006   -1.2537 H   0  0  0  0  0  0  0  0  0  0  0  0
    4.5976   -0.1205   -0.9220 H   0  0  0  0  0  0  0  0  0  0  0  0
    2.6271    0.6740    0.2987 H   0  0  0  0  0  0  0  0  0  0  0  0
    1.5983   -1.5787   -1.4433 H   0  0  0  0  0  0  0  0  0  0  0  0
    0.8686    1.5610    0.5174 H   0  0  0  0  0  0  0  0  0  0  0  0
   -0.9432    2.8217    0.7831 H   0  0  0  0  0  0  0  0  0  0  0  0
   -1.6357    2.1545   -0.6915 H   0  0  0  0  0  0  0  0  0  0  0  0
   -2.1095    1.2226    2.1924 H   0  0  0  0  0  0  0  0  0  0  0  0
   -3.1436    2.0332    1.0453 H   0  0  0  0  0  0  0  0  0  0  0  0
   -4.3717    0.6765   -0.9198 H   0  0  0  0  0  0  0  0  0  0  0  0
   -1.9182   -1.5131    1.7030 H   0  0  0  0  0  0  0  0  0  0  0  0
  1  2  1  0
  2  3  1  0
  3  4  2  0
  4  5  1  0
  5  6  2  0
  5  7  1  0
  7  8  1  0
  8  9  1  0
  9 10  1  0
 10 11  2  0
 11 12  1  0
 12 13  2  0
 13 14  1  0
 14 10  1  0
  1 15  1  0
  1 16  1  0
  2 17  1  0
  2 18  1  0
  3 19  1  0
  4 20  1  0
  7 21  1  0
  8 22  1  0
  8 23  1  0
  9 24  1  0
  9 25  1  0
 11 26  1  0
 14 27  1  0
M  END
$$$$
