
     RDKit          3D

 21 21  0  0  0  0  0  0  0  0999 V2000
    3.6820    0.0097    0.4015 N   0  0  0  0  0  0  0  0  0  0  0  0
    2.4533   -0.1589   -0.3005 C   0  0  0  0  0  0  0  0  0  0  0  0
    2.4522   -0.5058   -1.5249 O   0  0  0  0  0  0  0  0  0  0  0  0
    1.1897    0.0414    0.2957 N   0  0  0  0  0  0  0  0  0  0  0  0
   -0.0543   -0.1278   -0.4100 C   0  0  2  0  0  0  0  0  0  0  0  0
   -0.8518    1.1614   -0.4273 C   0  0  0  0  0  0  0  0  0  0  0  0
   -2.0935    0.8790   -1.2482 C   0  0  0  0  0  0  0  0  0  0  0  0
   -2.2726   -0.4466   -1.5335 O   0  0  0  0  0  0  0  0  0  0  0  0
   -2.1330   -1.2868   -0.5322 N   0  0  0  0  0  0  0  0  0  0  0  0
   -0.9443   -1.1715    0.2368 C   0  0  0  0  0  0  0  0  0  0  0  0
    3.8036   -0.1556    1.4154 H   0  0  0  0  0  0  0  0  0  0  0  0
    4.5175    0.3207   -0.1406 H   0  0  0  0  0  0  0  0  0  0  0  0
    1.1656    0.3262    1.2987 H   0  0  0  0  0  0  0  0  0  0  0  0
    0.0841   -0.4298   -1.4636 H   0  0  0  0  0  0  0  0  0  0  0  0
   -0.2694    2.0191   -0.8141 H   0  0  0  0  0  0  0  0  0  0  0  0
   -1.2152    1.3583    0.6231 H   0  0  0  0  0  0  0  0  0  0  0  0
   -1.9296    1.4108   -2.2309 H   0  0  0  0  0  0  0  0  0  0  0  0
   -2.9868    1.3692   -0.8062 H   0  0  0  0  0  0  0  0  0  0  0  0
   -2.9755   -1.5813   -0.0390 H   0  0  0  0  0  0  0  0  0  0  0  0
   -0.4147   -2.1553    0.2746 H   0  0  0  0  0  0  0  0  0  0  0  0
   -1.2071   -0.8765    1.2694 H   0  0  0  0  0  0  0  0  0  0  0  0
  1  2  1  0
  2  3  2  0
  2  4  1  0
  4  5  1  0
  5  6  1  0
  6  7  1  0
  7  8  1  0
  8  9  1  0
  9 10  1  0
 10  5  1  0
  1 11  1  0
  1 12  1  0
  4 13  1  0
  5 14  1  6
  6 15  1  0
  6 16  1  0
  7 17  1  0
  7 18  1  0
  9 19  1  0
 10 20  1  0
 10 21  1  0
M  END
$$$$

     RDKit          3D

 21 21  0  0  0  0  0  0  0  0999 V2000
    3.6990    0.0076   -0.0571 N   0  0  0  0  0  0  0  0  0  0  0  0
    2.3545   -0.4020    0.1459 C   0  0  0  0  0  0  0  0  0  0  0  0
    2.0783   -1.5527    0.6324 O   0  0  0  0  0  0  0  0  0  0  0  0
    1.2381    0.4080   -0.1652 N   0  0  0  0  0  0  0  0  0  0  0  0
   -0.0949   -0.0426    0.0546 C   0  0  2  0  0  0  0  0  0  0  0  0
   -0.9250   -0.0809   -1.2246 C   0  0  0  0  0  0  0  0  0  0  0  0
   -2.3013   -0.5571   -0.7913 C   0  0  0  0  0  0  0  0  0  0  0  0
   -2.2891   -0.9068    0.5576 O   0  0  0  0  0  0  0  0  0  0  0  0
   -2.0776    0.1451    1.3696 N   0  0  0  0  0  0  0  0  0  0  0  0
   -0.8635    0.8557    1.0149 C   0  0  0  0  0  0  0  0  0  0  0  0
    4.2524    0.5662    0.6215 H   0  0  0  0  0  0  0  0  0  0  0  0
    4.1744   -0.2626   -0.9399 H   0  0  0  0  0  0  0  0  0  0  0  0
    1.3894    1.3585   -0.5652 H   0  0  0  0  0  0  0  0  0  0  0  0
   -0.1560   -1.0648    0.4823 H   0  0  0  0  0  0  0  0  0  0  0  0
   -0.5101   -0.8155   -1.9439 H   0  0  0  0  0  0  0  0  0  0  0  0
   -1.0275    0.9377   -1.6725 H   0  0  0  0  0  0  0  0  0  0  0  0
   -2.5938   -1.4611   -1.3612 H   0  0  0  0  0  0  0  0  0  0  0  0
   -3.0419    0.2630   -0.8962 H   0  0  0  0  0  0  0  0  0  0  0  0
   -1.9273   -0.2388    2.3292 H   0  0  0  0  0  0  0  0  0  0  0  0
   -0.2063    1.0442    1.8829 H   0  0  0  0  0  0  0  0  0  0  0  0
   -1.1718    1.7989    0.5263 H   0  0  0  0  0  0  0  0  0  0  0  0
  1  2  1  0
  2  3  2  0
  2  4  1  0
  4  5  1  0
  5  6  1  0
  6  7  1  0
  7  8  1  0
  8  9  1  0
  9 10  1  0
 10  5  1  0
  1 11  1  0
  1 12  1  0
  4 13  1  0
  5 14  1  1
  6 15  1  0
  6 16  1  0
  7 17  1  0
  7 18  1  0
  9 19  1  0
 10 20  1  0
 10 21  1  0
M  END
$$$$

     RDKit          3D

 21 21  0  0  0  0  0  0  0  0999 V2000
    3.6434   -0.4373   -0.4455 N   0  0  0  0  0  0  0  0  0  0  0  0
    2.4377   -0.0155    0.1525 C   0  0  0  0  0  0  0  0  0  0  0  0
    2.4742    0.5225    1.2891 O   0  0  0  0  0  0  0  0  0  0  0  0
    1.1697   -0.1544   -0.4402 N   0  0  0  0  0  0  0  0  0  0  0  0
   -0.0657    0.2521    0.1185 C   0  0  2  0  0  0  0  0  0  0  0  0
   -0.8750   -1.0086    0.3682 C   0  0  0  0  0  0  0  0  0  0  0  0
   -2.3568   -0.7275    0.2619 C   0  0  0  0  0  0  0  0  0  0  0  0
   -2.5922    0.5258    0.7571 O   0  0  0  0  0  0  0  0  0  0  0  0
   -2.0741    1.5312    0.0735 N   0  0  0  0  0  0  0  0  0  0  0  0
   -0.9015    1.1576   -0.7188 C   0  0  0  0  0  0  0  0  0  0  0  0
    4.2120   -1.1765   -0.0052 H   0  0  0  0  0  0  0  0  0  0  0  0
    3.9580   -0.0047   -1.3270 H   0  0  0  0  0  0  0  0  0  0  0  0
    1.1492   -0.6109   -1.4020 H   0  0  0  0  0  0  0  0  0  0  0  0
    0.1247    0.7054    1.1139 H   0  0  0  0  0  0  0  0  0  0  0  0
   -0.6303   -1.7254   -0.4426 H   0  0  0  0  0  0  0  0  0  0  0  0
   -0.6012   -1.4921    1.3192 H   0  0  0  0  0  0  0  0  0  0  0  0
   -2.8720   -1.4633    0.9078 H   0  0  0  0  0  0  0  0  0  0  0  0
   -2.7233   -0.8859   -0.7697 H   0  0  0  0  0  0  0  0  0  0  0  0
   -1.7860    2.2789    0.7737 H   0  0  0  0  0  0  0  0  0  0  0  0
   -1.2618    0.6335   -1.6062 H   0  0  0  0  0  0  0  0  0  0  0  0
   -0.4288    2.0950   -1.0105 H   0  0  0  0  0  0  0  0  0  0  0  0
  1  2  1  0
  2  3  2  0
  2  4  1  0
  4  5  1  0
  5  6  1  0
  6  7  1  0
  7  8  1  0
  8  9  1  0
  9 10  1  0
 10  5  1  0
  1 11  1  0
  1 12  1  0
  4 13  1  0
  5 14  1  1
  6 15  1  0
  6 16  1  0
  7 17  1  0
  7 18  1  0
  9 19  1  0
 10 20  1  0
 10 21  1  0
M  END
$$$$

     RDKit          3D

 21 21  0  0  0  0  0  0  0  0999 V2000
    3.6982    0.0499    0.3871 N   0  0  0  0  0  0  0  0  0  0  0  0
    2.4393   -0.1522   -0.2600 C   0  0  0  0  0  0  0  0  0  0  0  0
    2.3722   -0.5087   -1.4745 O   0  0  0  0  0  0  0  0  0  0  0  0
    1.2031    0.0340    0.4173 N   0  0  0  0  0  0  0  0  0  0  0  0
   -0.0592   -0.1756   -0.2555 C   0  0  2  0  0  0  0  0  0  0  0  0
   -0.8823    1.0962   -0.1267 C   0  0  0  0  0  0  0  0  0  0  0  0
   -2.1762    0.9307   -0.8600 C   0  0  0  0  0  0  0  0  0  0  0  0
   -2.4790   -0.4007   -1.0295 O   0  0  0  0  0  0  0  0  0  0  0  0
   -2.2494   -1.1716    0.0191 N   0  0  0  0  0  0  0  0  0  0  0  0
   -0.8791   -1.2710    0.4250 C   0  0  0  0  0  0  0  0  0  0  0  0
    4.2142    0.9564    0.3433 H   0  0  0  0  0  0  0  0  0  0  0  0
    4.1473   -0.7174    0.9328 H   0  0  0  0  0  0  0  0  0  0  0  0
    1.2503    0.3270    1.4157 H   0  0  0  0  0  0  0  0  0  0  0  0
    0.0673   -0.4817   -1.3045 H   0  0  0  0  0  0  0  0  0  0  0  0
   -1.0581    1.2477    0.9697 H   0  0  0  0  0  0  0  0  0  0  0  0
   -0.2485    1.9152   -0.5119 H   0  0  0  0  0  0  0  0  0  0  0  0
   -2.1044    1.4124   -1.8768 H   0  0  0  0  0  0  0  0  0  0  0  0
   -2.9821    1.5058   -0.3402 H   0  0  0  0  0  0  0  0  0  0  0  0
   -2.9312   -1.1332    0.7779 H   0  0  0  0  0  0  0  0  0  0  0  0
   -0.5099   -2.2814    0.0844 H   0  0  0  0  0  0  0  0  0  0  0  0
   -0.8325   -1.1816    1.5211 H   0  0  0  0  0  0  0  0  0  0  0  0
  1  2  1  0
  2  3  2  0
  2  4  1  0
  4  5  1  0
  5  6  1  0
  6  7  1  0
  7  8  1  0
  8  9  1  0
  9 10  1  0
 10  5  1  0
  1 11  1  0
  1 12  1  0
  4 13  1  0
  5 14  1  6
  6 15  1  0
  6 16  1  0
  7 17  1  0
  7 18  1  0
  9 19  1  0
 10 20  1  0
 10 21  1  0
M  END
$$$$

     RDKit          3D

 21 21  0  0  0  0  0  0  0  0999 V2000
    3.6397   -0.3385    0.4221 N   0  0  0  0  0  0  0  0  0  0  0  0
    2.3808   -0.5330   -0.2329 C   0  0  0  0  0  0  0  0  0  0  0  0
    2.3120   -1.1440   -1.3466 O   0  0  0  0  0  0  0  0  0  0  0  0
    1.1540   -0.0717    0.2972 N   0  0  0  0  0  0  0  0  0  0  0  0
   -0.1179   -0.2702   -0.3682 C   0  0  2  0  0  0  0  0  0  0  0  0
   -0.7128    1.0641   -0.6886 C   0  0  0  0  0  0  0  0  0  0  0  0
   -1.9424    1.4115    0.0666 C   0  0  0  0  0  0  0  0  0  0  0  0
   -2.6458    0.3672    0.5882 O   0  0  0  0  0  0  0  0  0  0  0  0
   -2.3966   -0.8246    0.0211 N   0  0  0  0  0  0  0  0  0  0  0  0
   -1.0267   -1.1602    0.4317 C   0  0  0  0  0  0  0  0  0  0  0  0
    4.0900   -1.0714    0.9935 H   0  0  0  0  0  0  0  0  0  0  0  0
    4.1387    0.5744    0.3306 H   0  0  0  0  0  0  0  0  0  0  0  0
    1.1451    0.4351    1.2050 H   0  0  0  0  0  0  0  0  0  0  0  0
    0.1072   -0.8317   -1.3221 H   0  0  0  0  0  0  0  0  0  0  0  0
    0.0374    1.8877   -0.4941 H   0  0  0  0  0  0  0  0  0  0  0  0
   -0.9012    1.1302   -1.7905 H   0  0  0  0  0  0  0  0  0  0  0  0
   -1.7453    2.1367    0.9079 H   0  0  0  0  0  0  0  0  0  0  0  0
   -2.6369    1.9828   -0.6164 H   0  0  0  0  0  0  0  0  0  0  0  0
   -3.0818   -1.5231    0.3299 H   0  0  0  0  0  0  0  0  0  0  0  0
   -0.8759   -2.2215    0.2385 H   0  0  0  0  0  0  0  0  0  0  0  0
   -0.9215   -0.9997    1.5398 H   0  0  0  0  0  0  0  0  0  0  0  0
  1  2  1  0
  2  3  2  0
  2  4  1  0
  4  5  1  0
  5  6  1  0
  6  7  1  0
  7  8  1  0
  8  9  1  0
  9 10  1  0
 10  5  1  0
  1 11  1  0
  1 12  1  0
  4 13  1  0
  5 14  1  6
  6 15  1  0
  6 16  1  0
  7 17  1  0
  7 18  1  0
  9 19  1  0
 10 20  1  0
 10 21  1  0
M  END
$$$$

     RDKit          3D

 21 21  0  0  0  0  0  0  0  0999 V2000
    3.4725    0.6064   -0.0533 N   0  0  0  0  0  0  0  0  0  0  0  0
    2.3267   -0.1777   -0.3435 C   0  0  0  0  0  0  0  0  0  0  0  0
    2.4592   -1.2519   -1.0036 O   0  0  0  0  0  0  0  0  0  0  0  0
    1.0100    0.1821    0.0737 N   0  0  0  0  0  0  0  0  0  0  0  0
   -0.1026   -0.6603   -0.2564 C   0  0  2  0  0  0  0  0  0  0  0  0
   -1.1417    0.0377   -1.0960 C   0  0  0  0  0  0  0  0  0  0  0  0
   -1.7208    1.2223   -0.3916 C   0  0  0  0  0  0  0  0  0  0  0  0
   -1.9219    0.8871    0.9534 O   0  0  0  0  0  0  0  0  0  0  0  0
   -2.0834   -0.4382    1.0648 N   0  0  0  0  0  0  0  0  0  0  0  0
   -0.8136   -1.1297    1.0135 C   0  0  0  0  0  0  0  0  0  0  0  0
    4.3188    0.1578    0.3692 H   0  0  0  0  0  0  0  0  0  0  0  0
    3.4665    1.6396   -0.2648 H   0  0  0  0  0  0  0  0  0  0  0  0
    0.9326    1.0691    0.6137 H   0  0  0  0  0  0  0  0  0  0  0  0
    0.2460   -1.5363   -0.8318 H   0  0  0  0  0  0  0  0  0  0  0  0
   -1.9753   -0.7004   -1.2409 H   0  0  0  0  0  0  0  0  0  0  0  0
   -0.7730    0.2960   -2.1085 H   0  0  0  0  0  0  0  0  0  0  0  0
   -1.1244    2.1465   -0.4907 H   0  0  0  0  0  0  0  0  0  0  0  0
   -2.7464    1.3913   -0.8245 H   0  0  0  0  0  0  0  0  0  0  0  0
   -2.6230   -0.6740    1.9292 H   0  0  0  0  0  0  0  0  0  0  0  0
   -0.9922   -2.2191    0.9974 H   0  0  0  0  0  0  0  0  0  0  0  0
   -0.2142   -0.8483    1.8905 H   0  0  0  0  0  0  0  0  0  0  0  0
  1  2  1  0
  2  3  2  0
  2  4  1  0
  4  5  1  0
  5  6  1  0
  6  7  1  0
  7  8  1  0
  8  9  1  0
  9 10  1  0
 10  5  1  0
  1 11  1  0
  1 12  1  0
  4 13  1  0
  5 14  1  6
  6 15  1  0
  6 16  1  0
  7 17  1  0
  7 18  1  0
  9 19  1  0
 10 20  1  0
 10 21  1  0
M  END
$$$$

     RDKit          3D

 21 21  0  0  0  0  0  0  0  0999 V2000
    3.5317   -0.9175    0.7893 N   0  0  0  0  0  0  0  0  0  0  0  0
    2.1216   -0.9712    0.8256 C   0  0  0  0  0  0  0  0  0  0  0  0
    1.5340   -1.8618    1.4944 O   0  0  0  0  0  0  0  0  0  0  0  0
    1.3165   -0.0346    0.1182 N   0  0  0  0  0  0  0  0  0  0  0  0
   -0.1062   -0.0199    0.1031 C   0  0  2  0  0  0  0  0  0  0  0  0
   -0.7078   -0.2354   -1.2670 C   0  0  0  0  0  0  0  0  0  0  0  0
   -2.2143   -0.3545   -1.0443 C   0  0  0  0  0  0  0  0  0  0  0  0
   -2.7280    0.7646   -0.4199 O   0  0  0  0  0  0  0  0  0  0  0  0
   -2.1349    1.0448    0.7523 N   0  0  0  0  0  0  0  0  0  0  0  0
   -0.7131    1.2418    0.6465 C   0  0  0  0  0  0  0  0  0  0  0  0
    3.9913   -0.3506    0.0557 H   0  0  0  0  0  0  0  0  0  0  0  0
    4.0971   -1.4272    1.4727 H   0  0  0  0  0  0  0  0  0  0  0  0
    1.8327    0.6940   -0.4291 H   0  0  0  0  0  0  0  0  0  0  0  0
   -0.4645   -0.8660    0.7395 H   0  0  0  0  0  0  0  0  0  0  0  0
   -0.5819    0.6541   -1.9300 H   0  0  0  0  0  0  0  0  0  0  0  0
   -0.3726   -1.1559   -1.7479 H   0  0  0  0  0  0  0  0  0  0  0  0
   -2.6776   -0.4248   -2.0492 H   0  0  0  0  0  0  0  0  0  0  0  0
   -2.4144   -1.2929   -0.5136 H   0  0  0  0  0  0  0  0  0  0  0  0
   -2.5371    1.9814    1.0596 H   0  0  0  0  0  0  0  0  0  0  0  0
   -0.4456    2.0705   -0.0443 H   0  0  0  0  0  0  0  0  0  0  0  0
   -0.3268    1.4610    1.6527 H   0  0  0  0  0  0  0  0  0  0  0  0
  1  2  1  0
  2  3  2  0
  2  4  1  0
  4  5  1  0
  5  6  1  0
  6  7  1  0
  7  8  1  0
  8  9  1  0
  9 10  1  0
 10  5  1  0
  1 11  1  0
  1 12  1  0
  4 13  1  0
  5 14  1  1
  6 15  1  0
  6 16  1  0
  7 17  1  0
  7 18  1  0
  9 19  1  0
 10 20  1  0
 10 21  1  0
M  END
$$$$

     RDKit          3D

 21 21  0  0  0  0  0  0  0  0999 V2000
    3.6900   -0.0918    0.2369 N   0  0  0  0  0  0  0  0  0  0  0  0
    2.4050    0.0721   -0.3515 C   0  0  0  0  0  0  0  0  0  0  0  0
    2.3036    0.4753   -1.5517 O   0  0  0  0  0  0  0  0  0  0  0  0
    1.2292   -0.2142    0.4000 N   0  0  0  0  0  0  0  0  0  0  0  0
   -0.0331   -0.0299   -0.2467 C   0  0  2  0  0  0  0  0  0  0  0  0
   -0.8703    0.9692    0.5172 C   0  0  0  0  0  0  0  0  0  0  0  0
   -2.2655    1.0881   -0.0081 C   0  0  0  0  0  0  0  0  0  0  0  0
   -2.8412   -0.1123   -0.3824 O   0  0  0  0  0  0  0  0  0  0  0  0
   -2.0387   -0.9463   -1.0074 N   0  0  0  0  0  0  0  0  0  0  0  0
   -0.8538   -1.3102   -0.3095 C   0  0  0  0  0  0  0  0  0  0  0  0
    4.1462   -1.0214    0.1731 H   0  0  0  0  0  0  0  0  0  0  0  0
    4.1160    0.7335    0.7072 H   0  0  0  0  0  0  0  0  0  0  0  0
    1.3189   -0.5407    1.3726 H   0  0  0  0  0  0  0  0  0  0  0  0
    0.0707    0.3255   -1.2904 H   0  0  0  0  0  0  0  0  0  0  0  0
   -0.3601    1.9512    0.4360 H   0  0  0  0  0  0  0  0  0  0  0  0
   -0.9156    0.6363    1.5766 H   0  0  0  0  0  0  0  0  0  0  0  0
   -2.2933    1.7712   -0.8682 H   0  0  0  0  0  0  0  0  0  0  0  0
   -2.9086    1.5314    0.7811 H   0  0  0  0  0  0  0  0  0  0  0  0
   -2.4170   -1.5890   -1.6783 H   0  0  0  0  0  0  0  0  0  0  0  0
   -0.3290   -2.1369   -0.7656 H   0  0  0  0  0  0  0  0  0  0  0  0
   -1.1533   -1.5610    0.7492 H   0  0  0  0  0  0  0  0  0  0  0  0
  1  2  1  0
  2  3  2  0
  2  4  1  0
  4  5  1  0
  5  6  1  0
  6  7  1  0
  7  8  1  0
  8  9  1  0
  9 10  1  0
 10  5  1  0
  1 11  1  0
  1 12  1  0
  4 13  1  0
  5 14  1  6
  6 15  1  0
  6 16  1  0
  7 17  1  0
  7 18  1  0
  9 19  1  0
 10 20  1  0
 10 21  1  0
M  END
$$$$
