
     RDKit          3D

 31 32  0  0  0  0  0  0  0  0999 V2000
    2.0637   -1.6310    0.5703 C   0  0  0  0  0  0  0  0  0  0  0  0
    1.8936   -0.2284    0.0924 C   0  0  0  0  0  0  0  0  0  0  0  0
    3.1298    0.5894    0.0851 C   0  0  0  0  0  0  0  0  0  0  0  0
    2.8403    1.8823   -0.3883 O   0  0  0  0  0  0  0  0  0  0  0  0
    0.6475    0.4444    0.6954 C   0  0  0  0  0  0  0  0  0  0  0  0
   -0.0166    0.1500   -0.4745 N   0  0  0  0  0  0  0  0  0  0  0  0
   -1.3199    0.0086   -0.7829 C   0  0  2  0  0  0  0  0  0  0  0  0
   -2.2044    1.2619   -0.6347 C   0  0  0  0  0  0  0  0  0  0  0  0
   -2.3708    1.2950    0.7954 N   0  0  0  0  0  0  0  0  0  0  0  0
   -2.7825   -0.0647    1.0779 C   0  0  0  0  0  0  0  0  0  0  0  0
   -2.1482   -0.9509    0.0425 C   0  0  1  0  0  0  0  0  0  0  0  0
   -3.1536   -1.5093   -0.7450 O   0  0  0  0  0  0  0  0  0  0  0  0
    1.1229   -0.1509   -1.2399 C   0  0  0  0  0  0  0  0  0  0  0  0
    1.1895   -2.2767    0.3253 H   0  0  0  0  0  0  0  0  0  0  0  0
    2.1753   -1.6529    1.6642 H   0  0  0  0  0  0  0  0  0  0  0  0
    2.9640   -2.1025    0.1251 H   0  0  0  0  0  0  0  0  0  0  0  0
    3.5998    0.6313    1.0954 H   0  0  0  0  0  0  0  0  0  0  0  0
    3.8601    0.1666   -0.6311 H   0  0  0  0  0  0  0  0  0  0  0  0
    3.2153    2.5639    0.2467 H   0  0  0  0  0  0  0  0  0  0  0  0
    0.3797   -0.0129    1.6591 H   0  0  0  0  0  0  0  0  0  0  0  0
    0.8700    1.5259    0.8534 H   0  0  0  0  0  0  0  0  0  0  0  0
   -1.4479   -0.2830   -1.8697 H   0  0  0  0  0  0  0  0  0  0  0  0
   -3.1723    0.9829   -1.0922 H   0  0  0  0  0  0  0  0  0  0  0  0
   -1.7299    2.1361   -1.0786 H   0  0  0  0  0  0  0  0  0  0  0  0
   -1.4928    1.5633    1.2895 H   0  0  0  0  0  0  0  0  0  0  0  0
   -2.4753   -0.3687    2.1021 H   0  0  0  0  0  0  0  0  0  0  0  0
   -3.9086   -0.0597    1.0173 H   0  0  0  0  0  0  0  0  0  0  0  0
   -1.5677   -1.7807    0.4671 H   0  0  0  0  0  0  0  0  0  0  0  0
   -2.7801   -1.7254   -1.6288 H   0  0  0  0  0  0  0  0  0  0  0  0
    1.1454   -1.1065   -1.7827 H   0  0  0  0  0  0  0  0  0  0  0  0
    1.4737    0.7030   -1.8558 H   0  0  0  0  0  0  0  0  0  0  0  0
  1  2  1  0
  2  3  1  0
  3  4  1  0
  2  5  1  0
  5  6  1  0
  6  7  1  0
  7  8  1  0
  8  9  1  0
  9 10  1  0
 10 11  1  0
 11 12  1  0
  6 13  1  0
 13  2  1  0
 11  7  1  0
  1 14  1  0
  1 15  1  0
  1 16  1  0
  3 17  1  0
  3 18  1  0
  4 19  1  0
  5 20  1  0
  5 21  1  0
  7 22  1  6
  8 23  1  0
  8 24  1  0
  9 25  1  0
 10 26  1  0
 10 27  1  0
 11 28  1  1
 12 29  1  0
 13 30  1  0
 13 31  1  0
M  END
$$$$

     RDKit          3D

 31 32  0  0  0  0  0  0  0  0999 V2000
    1.8266    1.1875    0.1980 C   0  0  0  0  0  0  0  0  0  0  0  0
    1.8174   -0.2098   -0.3338 C   0  0  0  0  0  0  0  0  0  0  0  0
    3.1726   -0.7846   -0.5860 C   0  0  0  0  0  0  0  0  0  0  0  0
    3.8577   -0.7911    0.6371 O   0  0  0  0  0  0  0  0  0  0  0  0
    0.7825   -0.4283   -1.4278 C   0  0  0  0  0  0  0  0  0  0  0  0
   -0.1384   -0.8464   -0.4215 N   0  0  0  0  0  0  0  0  0  0  0  0
   -1.1245    0.0798   -0.0040 C   0  0  2  0  0  0  0  0  0  0  0  0
   -1.8861   -0.3386    1.2258 C   0  0  0  0  0  0  0  0  0  0  0  0
   -3.0489    0.5567    1.1455 N   0  0  0  0  0  0  0  0  0  0  0  0
   -3.4588    0.4334   -0.2365 C   0  0  0  0  0  0  0  0  0  0  0  0
   -2.2596    0.0214   -1.0395 C   0  0  1  0  0  0  0  0  0  0  0  0
   -1.9750    0.8235   -2.1109 O   0  0  0  0  0  0  0  0  0  0  0  0
    0.9439   -1.1778    0.4391 C   0  0  0  0  0  0  0  0  0  0  0  0
    1.2869    1.2605    1.1705 H   0  0  0  0  0  0  0  0  0  0  0  0
    1.4149    1.8699   -0.5709 H   0  0  0  0  0  0  0  0  0  0  0  0
    2.8832    1.5029    0.4300 H   0  0  0  0  0  0  0  0  0  0  0  0
    3.7512   -0.1481   -1.2964 H   0  0  0  0  0  0  0  0  0  0  0  0
    3.1543   -1.8180   -0.9412 H   0  0  0  0  0  0  0  0  0  0  0  0
    4.5307   -0.0621    0.6699 H   0  0  0  0  0  0  0  0  0  0  0  0
    0.5556    0.5035   -1.9703 H   0  0  0  0  0  0  0  0  0  0  0  0
    1.0729   -1.2615   -2.0855 H   0  0  0  0  0  0  0  0  0  0  0  0
   -0.8297    1.1222    0.0625 H   0  0  0  0  0  0  0  0  0  0  0  0
   -1.3319   -0.1977    2.1589 H   0  0  0  0  0  0  0  0  0  0  0  0
   -2.2407   -1.3618    1.0852 H   0  0  0  0  0  0  0  0  0  0  0  0
   -2.6618    1.5444    1.2352 H   0  0  0  0  0  0  0  0  0  0  0  0
   -4.2499   -0.3482   -0.2615 H   0  0  0  0  0  0  0  0  0  0  0  0
   -3.8451    1.3914   -0.6533 H   0  0  0  0  0  0  0  0  0  0  0  0
   -2.3370   -1.0610   -1.3201 H   0  0  0  0  0  0  0  0  0  0  0  0
   -1.7878    1.7324   -1.7842 H   0  0  0  0  0  0  0  0  0  0  0  0
    1.2815   -2.2271    0.2422 H   0  0  0  0  0  0  0  0  0  0  0  0
    0.8432   -0.9674    1.5129 H   0  0  0  0  0  0  0  0  0  0  0  0
  1  2  1  0
  2  3  1  0
  3  4  1  0
  2  5  1  0
  5  6  1  0
  6  7  1  0
  7  8  1  0
  8  9  1  0
  9 10  1  0
 10 11  1  0
 11 12  1  0
  6 13  1  0
 13  2  1  0
 11  7  1  0
  1 14  1  0
  1 15  1  0
  1 16  1  0
  3 17  1  0
  3 18  1  0
  4 19  1  0
  5 20  1  0
  5 21  1  0
  7 22  1  1
  8 23  1  0
  8 24  1  0
  9 25  1  0
 10 26  1  0
 10 27  1  0
 11 28  1  6
 12 29  1  0
 13 30  1  0
 13 31  1  0
M  END
$$$$

     RDKit          3D

 31 32  0  0  0  0  0  0  0  0999 V2000
   -2.7449   -1.5484    0.2983 C   0  0  0  0  0  0  0  0  0  0  0  0
   -1.9957   -0.2814   -0.0227 C   0  0  0  0  0  0  0  0  0  0  0  0
   -2.8652    0.9202   -0.2396 C   0  0  0  0  0  0  0  0  0  0  0  0
   -2.0202    1.9977   -0.5243 O   0  0  0  0  0  0  0  0  0  0  0  0
   -0.9228   -0.0451    1.0069 C   0  0  0  0  0  0  0  0  0  0  0  0
    0.0222   -0.6830    0.1136 N   0  0  0  0  0  0  0  0  0  0  0  0
    1.2984   -0.1427    0.1995 C   0  0  2  0  0  0  0  0  0  0  0  0
    1.4670    1.3091   -0.1767 C   0  0  0  0  0  0  0  0  0  0  0  0
    2.9197    1.4538   -0.2694 N   0  0  0  0  0  0  0  0  0  0  0  0
    3.5118    0.1569   -0.2846 C   0  0  0  0  0  0  0  0  0  0  0  0
    2.3594   -0.7604   -0.6701 C   0  0  1  0  0  0  0  0  0  0  0  0
    2.6159   -2.0831   -0.4228 O   0  0  0  0  0  0  0  0  0  0  0  0
   -0.8362   -0.4438   -0.9837 C   0  0  0  0  0  0  0  0  0  0  0  0
   -3.7950   -1.5209   -0.0659 H   0  0  0  0  0  0  0  0  0  0  0  0
   -2.2409   -2.4225   -0.1698 H   0  0  0  0  0  0  0  0  0  0  0  0
   -2.7466   -1.7598    1.3999 H   0  0  0  0  0  0  0  0  0  0  0  0
   -3.5640    0.7316   -1.0905 H   0  0  0  0  0  0  0  0  0  0  0  0
   -3.4449    1.0839    0.6848 H   0  0  0  0  0  0  0  0  0  0  0  0
   -2.5697    2.6203   -1.0753 H   0  0  0  0  0  0  0  0  0  0  0  0
   -1.0496   -0.6280    1.9554 H   0  0  0  0  0  0  0  0  0  0  0  0
   -0.7634    1.0261    1.1884 H   0  0  0  0  0  0  0  0  0  0  0  0
    1.6627   -0.2254    1.2624 H   0  0  0  0  0  0  0  0  0  0  0  0
    1.0755    1.4603   -1.2015 H   0  0  0  0  0  0  0  0  0  0  0  0
    1.0061    1.9757    0.5459 H   0  0  0  0  0  0  0  0  0  0  0  0
    3.2151    1.9599   -1.1302 H   0  0  0  0  0  0  0  0  0  0  0  0
    3.7530   -0.1191    0.7810 H   0  0  0  0  0  0  0  0  0  0  0  0
    4.3767    0.0435   -0.9457 H   0  0  0  0  0  0  0  0  0  0  0  0
    2.1580   -0.5510   -1.7532 H   0  0  0  0  0  0  0  0  0  0  0  0
    1.7891   -2.5967   -0.4534 H   0  0  0  0  0  0  0  0  0  0  0  0
   -0.6779    0.4371   -1.6156 H   0  0  0  0  0  0  0  0  0  0  0  0
   -0.9935   -1.3645   -1.6175 H   0  0  0  0  0  0  0  0  0  0  0  0
  1  2  1  0
  2  3  1  0
  3  4  1  0
  2  5  1  0
  5  6  1  0
  6  7  1  0
  7  8  1  0
  8  9  1  0
  9 10  1  0
 10 11  1  0
 11 12  1  0
  6 13  1  0
 13  2  1  0
 11  7  1  0
  1 14  1  0
  1 15  1  0
  1 16  1  0
  3 17  1  0
  3 18  1  0
  4 19  1  0
  5 20  1  0
  5 21  1  0
  7 22  1  1
  8 23  1  0
  8 24  1  0
  9 25  1  0
 10 26  1  0
 10 27  1  0
 11 28  1  6
 12 29  1  0
 13 30  1  0
 13 31  1  0
M  END
$$$$

     RDKit          3D

 31 32  0  0  0  0  0  0  0  0999 V2000
    2.7289   -1.5248    0.2587 C   0  0  0  0  0  0  0  0  0  0  0  0
    2.0657   -0.1998    0.0166 C   0  0  0  0  0  0  0  0  0  0  0  0
    2.9820    0.9787   -0.0112 C   0  0  0  0  0  0  0  0  0  0  0  0
    4.0494    0.8251   -0.8736 O   0  0  0  0  0  0  0  0  0  0  0  0
    0.9851   -0.2468   -1.0217 C   0  0  0  0  0  0  0  0  0  0  0  0
   -0.0277   -0.4665    0.0053 N   0  0  0  0  0  0  0  0  0  0  0  0
   -1.2515    0.2478   -0.1938 C   0  0  2  0  0  0  0  0  0  0  0  0
   -1.8091    0.9096    1.0231 C   0  0  0  0  0  0  0  0  0  0  0  0
   -2.9620    0.1217    1.4401 N   0  0  0  0  0  0  0  0  0  0  0  0
   -3.5568   -0.3597    0.2160 C   0  0  0  0  0  0  0  0  0  0  0  0
   -2.3448   -0.7190   -0.6088 C   0  0  1  0  0  0  0  0  0  0  0  0
   -2.6656   -0.6008   -1.9511 O   0  0  0  0  0  0  0  0  0  0  0  0
    0.8995    0.0704    0.9665 C   0  0  0  0  0  0  0  0  0  0  0  0
    3.4536   -1.6691   -0.5949 H   0  0  0  0  0  0  0  0  0  0  0  0
    3.2931   -1.5044    1.2078 H   0  0  0  0  0  0  0  0  0  0  0  0
    1.9597   -2.3115    0.2685 H   0  0  0  0  0  0  0  0  0  0  0  0
    3.3683    1.1642    0.9951 H   0  0  0  0  0  0  0  0  0  0  0  0
    2.3535    1.8750   -0.2910 H   0  0  0  0  0  0  0  0  0  0  0  0
    3.8241    0.8283   -1.8136 H   0  0  0  0  0  0  0  0  0  0  0  0
    0.8559    0.6994   -1.5745 H   0  0  0  0  0  0  0  0  0  0  0  0
    1.0446   -1.1115   -1.7312 H   0  0  0  0  0  0  0  0  0  0  0  0
   -1.0940    1.0033   -1.0019 H   0  0  0  0  0  0  0  0  0  0  0  0
   -2.1659    1.9282    0.7853 H   0  0  0  0  0  0  0  0  0  0  0  0
   -1.1322    0.9538    1.8842 H   0  0  0  0  0  0  0  0  0  0  0  0
   -3.6034    0.6938    2.0169 H   0  0  0  0  0  0  0  0  0  0  0  0
   -4.2077   -1.2324    0.3840 H   0  0  0  0  0  0  0  0  0  0  0  0
   -4.1259    0.4755   -0.2344 H   0  0  0  0  0  0  0  0  0  0  0  0
   -2.0700   -1.7699   -0.4106 H   0  0  0  0  0  0  0  0  0  0  0  0
   -2.5858    0.3587   -2.2197 H   0  0  0  0  0  0  0  0  0  0  0  0
    0.9745   -0.5575    1.8871 H   0  0  0  0  0  0  0  0  0  0  0  0
    0.7648    1.1401    1.1770 H   0  0  0  0  0  0  0  0  0  0  0  0
  1  2  1  0
  2  3  1  0
  3  4  1  0
  2  5  1  0
  5  6  1  0
  6  7  1  0
  7  8  1  0
  8  9  1  0
  9 10  1  0
 10 11  1  0
 11 12  1  0
  6 13  1  0
 13  2  1  0
 11  7  1  0
  1 14  1  0
  1 15  1  0
  1 16  1  0
  3 17  1  0
  3 18  1  0
  4 19  1  0
  5 20  1  0
  5 21  1  0
  7 22  1  6
  8 23  1  0
  8 24  1  0
  9 25  1  0
 10 26  1  0
 10 27  1  0
 11 28  1  6
 12 29  1  0
 13 30  1  0
 13 31  1  0
M  END
$$$$

     RDKit          3D

 31 32  0  0  0  0  0  0  0  0999 V2000
    2.4982   -0.8639   -1.0674 C   0  0  0  0  0  0  0  0  0  0  0  0
    1.9936   -0.2272    0.2111 C   0  0  0  0  0  0  0  0  0  0  0  0
    3.0547    0.1745    1.1865 C   0  0  0  0  0  0  0  0  0  0  0  0
    3.9064    1.0763    0.5269 O   0  0  0  0  0  0  0  0  0  0  0  0
    0.8513   -1.0539    0.7752 C   0  0  0  0  0  0  0  0  0  0  0  0
   -0.0558    0.0473    0.7570 N   0  0  0  0  0  0  0  0  0  0  0  0
   -1.2110   -0.0818   -0.0992 C   0  0  2  0  0  0  0  0  0  0  0  0
   -1.6042    1.3186   -0.5293 C   0  0  0  0  0  0  0  0  0  0  0  0
   -3.0420    1.3677   -0.5379 N   0  0  0  0  0  0  0  0  0  0  0  0
   -3.5432    0.0800   -0.1463 C   0  0  0  0  0  0  0  0  0  0  0  0
   -2.4188   -0.6252    0.5989 C   0  0  1  0  0  0  0  0  0  0  0  0
   -2.5719   -1.9921    0.3157 O   0  0  0  0  0  0  0  0  0  0  0  0
    0.9610    0.8390    0.0553 C   0  0  0  0  0  0  0  0  0  0  0  0
    2.5804   -1.9601   -0.9434 H   0  0  0  0  0  0  0  0  0  0  0  0
    3.5049   -0.5036   -1.3488 H   0  0  0  0  0  0  0  0  0  0  0  0
    1.7555   -0.7004   -1.8805 H   0  0  0  0  0  0  0  0  0  0  0  0
    2.5522    0.7937    1.9667 H   0  0  0  0  0  0  0  0  0  0  0  0
    3.6042   -0.6469    1.6514 H   0  0  0  0  0  0  0  0  0  0  0  0
    3.5827    1.2964   -0.3806 H   0  0  0  0  0  0  0  0  0  0  0  0
    1.1135   -1.4446    1.7728 H   0  0  0  0  0  0  0  0  0  0  0  0
    0.5276   -1.9037    0.1338 H   0  0  0  0  0  0  0  0  0  0  0  0
   -0.9657   -0.7162   -0.9778 H   0  0  0  0  0  0  0  0  0  0  0  0
   -1.2602    2.0555    0.2498 H   0  0  0  0  0  0  0  0  0  0  0  0
   -1.1546    1.6018   -1.4998 H   0  0  0  0  0  0  0  0  0  0  0  0
   -3.4205    2.1448    0.0443 H   0  0  0  0  0  0  0  0  0  0  0  0
   -4.4621    0.1153    0.4600 H   0  0  0  0  0  0  0  0  0  0  0  0
   -3.7356   -0.4916   -1.0902 H   0  0  0  0  0  0  0  0  0  0  0  0
   -2.4333   -0.4270    1.6789 H   0  0  0  0  0  0  0  0  0  0  0  0
   -2.5283   -2.0515   -0.6816 H   0  0  0  0  0  0  0  0  0  0  0  0
    0.7568    1.0084   -1.0139 H   0  0  0  0  0  0  0  0  0  0  0  0
    1.1639    1.7704    0.6031 H   0  0  0  0  0  0  0  0  0  0  0  0
  1  2  1  0
  2  3  1  0
  3  4  1  0
  2  5  1  0
  5  6  1  0
  6  7  1  0
  7  8  1  0
  8  9  1  0
  9 10  1  0
 10 11  1  0
 11 12  1  0
  6 13  1  0
 13  2  1  0
 11  7  1  0
  1 14  1  0
  1 15  1  0
  1 16  1  0
  3 17  1  0
  3 18  1  0
  4 19  1  0
  5 20  1  0
  5 21  1  0
  7 22  1  6
  8 23  1  0
  8 24  1  0
  9 25  1  0
 10 26  1  0
 10 27  1  0
 11 28  1  1
 12 29  1  0
 13 30  1  0
 13 31  1  0
M  END
$$$$

     RDKit          3D

 31 32  0  0  0  0  0  0  0  0999 V2000
   -2.5146   -0.9252    0.9246 C   0  0  0  0  0  0  0  0  0  0  0  0
   -1.9109    0.1021    0.0249 C   0  0  0  0  0  0  0  0  0  0  0  0
   -2.8587    1.1305   -0.5230 C   0  0  0  0  0  0  0  0  0  0  0  0
   -3.8817    0.5771   -1.2811 O   0  0  0  0  0  0  0  0  0  0  0  0
   -0.9637   -0.5391   -0.9621 C   0  0  0  0  0  0  0  0  0  0  0  0
    0.0648    0.3399   -0.4890 N   0  0  0  0  0  0  0  0  0  0  0  0
    1.3549   -0.1835   -0.2611 C   0  0  2  0  0  0  0  0  0  0  0  0
    1.5094   -1.2170    0.7781 C   0  0  0  0  0  0  0  0  0  0  0  0
    2.8726   -1.0802    1.3157 N   0  0  0  0  0  0  0  0  0  0  0  0
    3.3880    0.1676    0.8567 C   0  0  0  0  0  0  0  0  0  0  0  0
    2.2740    0.9292    0.1880 C   0  0  1  0  0  0  0  0  0  0  0  0
    2.7656    1.6544   -0.8987 O   0  0  0  0  0  0  0  0  0  0  0  0
   -0.6973    0.8313    0.6126 C   0  0  0  0  0  0  0  0  0  0  0  0
   -1.9286   -1.8820    0.8747 H   0  0  0  0  0  0  0  0  0  0  0  0
   -3.5263   -1.1732    0.4936 H   0  0  0  0  0  0  0  0  0  0  0  0
   -2.6165   -0.6379    1.9701 H   0  0  0  0  0  0  0  0  0  0  0  0
   -3.3352    1.6329    0.3546 H   0  0  0  0  0  0  0  0  0  0  0  0
   -2.2741    1.8956   -1.0720 H   0  0  0  0  0  0  0  0  0  0  0  0
   -4.6234    0.3600   -0.6823 H   0  0  0  0  0  0  0  0  0  0  0  0
   -0.7336   -1.5895   -0.7899 H   0  0  0  0  0  0  0  0  0  0  0  0
   -1.2715   -0.3717   -2.0180 H   0  0  0  0  0  0  0  0  0  0  0  0
    1.7342   -0.5978   -1.2316 H   0  0  0  0  0  0  0  0  0  0  0  0
    0.8521   -1.1095    1.6612 H   0  0  0  0  0  0  0  0  0  0  0  0
    1.3648   -2.2506    0.4019 H   0  0  0  0  0  0  0  0  0  0  0  0
    3.4296   -1.9089    1.0702 H   0  0  0  0  0  0  0  0  0  0  0  0
    4.2212    0.0061    0.1389 H   0  0  0  0  0  0  0  0  0  0  0  0
    3.7566    0.8006    1.6898 H   0  0  0  0  0  0  0  0  0  0  0  0
    1.7572    1.6108    0.8670 H   0  0  0  0  0  0  0  0  0  0  0  0
    3.0321    1.0779   -1.6539 H   0  0  0  0  0  0  0  0  0  0  0  0
   -0.4927    0.4322    1.6081 H   0  0  0  0  0  0  0  0  0  0  0  0
   -0.7485    1.9179    0.6252 H   0  0  0  0  0  0  0  0  0  0  0  0
  1  2  1  0
  2  3  1  0
  3  4  1  0
  2  5  1  0
  5  6  1  0
  6  7  1  0
  7  8  1  0
  8  9  1  0
  9 10  1  0
 10 11  1  0
 11 12  1  0
  6 13  1  0
 13  2  1  0
 11  7  1  0
  1 14  1  0
  1 15  1  0
  1 16  1  0
  3 17  1  0
  3 18  1  0
  4 19  1  0
  5 20  1  0
  5 21  1  0
  7 22  1  6
  8 23  1  0
  8 24  1  0
  9 25  1  0
 10 26  1  0
 10 27  1  0
 11 28  1  1
 12 29  1  0
 13 30  1  0
 13 31  1  0
M  END
$$$$

     RDKit          3D

 31 32  0  0  0  0  0  0  0  0999 V2000
   -1.9715   -1.6164    0.8599 C   0  0  0  0  0  0  0  0  0  0  0  0
   -2.0043   -0.3134    0.1323 C   0  0  0  0  0  0  0  0  0  0  0  0
   -3.3458    0.1702   -0.3382 C   0  0  0  0  0  0  0  0  0  0  0  0
   -3.1453    1.3991   -0.9864 O   0  0  0  0  0  0  0  0  0  0  0  0
   -0.9254   -0.3336   -0.9641 C   0  0  0  0  0  0  0  0  0  0  0  0
   -0.0057   -0.0359    0.1228 N   0  0  0  0  0  0  0  0  0  0  0  0
    1.1753    0.6913   -0.2586 C   0  0  2  0  0  0  0  0  0  0  0  0
    1.9428   -0.1940   -1.2288 C   0  0  0  0  0  0  0  0  0  0  0  0
    2.7664   -1.0571   -0.4198 N   0  0  0  0  0  0  0  0  0  0  0  0
    2.7366   -0.5804    0.9316 C   0  0  0  0  0  0  0  0  0  0  0  0
    2.1640    0.8325    0.8544 C   0  0  1  0  0  0  0  0  0  0  0  0
    3.1853    1.6661    0.4175 O   0  0  0  0  0  0  0  0  0  0  0  0
   -1.0932    0.7778    0.6667 C   0  0  0  0  0  0  0  0  0  0  0  0
   -1.4227   -2.4135    0.2809 H   0  0  0  0  0  0  0  0  0  0  0  0
   -2.9763   -2.0121    1.0857 H   0  0  0  0  0  0  0  0  0  0  0  0
   -1.3939   -1.5409    1.8233 H   0  0  0  0  0  0  0  0  0  0  0  0
   -3.8616   -0.5530   -0.9825 H   0  0  0  0  0  0  0  0  0  0  0  0
   -3.9534    0.3851    0.5653 H   0  0  0  0  0  0  0  0  0  0  0  0
   -3.5145    2.1604   -0.4580 H   0  0  0  0  0  0  0  0  0  0  0  0
   -1.0727    0.5142   -1.6804 H   0  0  0  0  0  0  0  0  0  0  0  0
   -0.7896   -1.3169   -1.4403 H   0  0  0  0  0  0  0  0  0  0  0  0
    0.9489    1.6489   -0.7606 H   0  0  0  0  0  0  0  0  0  0  0  0
    2.5795    0.4247   -1.8823 H   0  0  0  0  0  0  0  0  0  0  0  0
    1.2029   -0.7602   -1.8154 H   0  0  0  0  0  0  0  0  0  0  0  0
    3.7436   -1.1306   -0.8078 H   0  0  0  0  0  0  0  0  0  0  0  0
    2.1177   -1.1880    1.6071 H   0  0  0  0  0  0  0  0  0  0  0  0
    3.7895   -0.5229    1.3123 H   0  0  0  0  0  0  0  0  0  0  0  0
    1.7042    1.1491    1.8018 H   0  0  0  0  0  0  0  0  0  0  0  0
    3.7480    1.1306   -0.1952 H   0  0  0  0  0  0  0  0  0  0  0  0
   -1.1006    0.9382    1.7383 H   0  0  0  0  0  0  0  0  0  0  0  0
   -1.2282    1.6808    0.0184 H   0  0  0  0  0  0  0  0  0  0  0  0
  1  2  1  0
  2  3  1  0
  3  4  1  0
  2  5  1  0
  5  6  1  0
  6  7  1  0
  7  8  1  0
  8  9  1  0
  9 10  1  0
 10 11  1  0
 11 12  1  0
  6 13  1  0
 13  2  1  0
 11  7  1  0
  1 14  1  0
  1 15  1  0
  1 16  1  0
  3 17  1  0
  3 18  1  0
  4 19  1  0
  5 20  1  0
  5 21  1  0
  7 22  1  6
  8 23  1  0
  8 24  1  0
  9 25  1  0
 10 26  1  0
 10 27  1  0
 11 28  1  1
 12 29  1  0
 13 30  1  0
 13 31  1  0
M  END
$$$$

     RDKit          3D

 31 32  0  0  0  0  0  0  0  0999 V2000
    3.0298    1.0195    0.0945 C   0  0  0  0  0  0  0  0  0  0  0  0
    1.9754   -0.0461   -0.0364 C   0  0  0  0  0  0  0  0  0  0  0  0
    2.4744   -1.4619    0.1088 C   0  0  0  0  0  0  0  0  0  0  0  0
    3.4302   -1.7564   -0.8603 O   0  0  0  0  0  0  0  0  0  0  0  0
    1.0772    0.1570   -1.2375 C   0  0  0  0  0  0  0  0  0  0  0  0
    0.0008    0.0329   -0.3950 N   0  0  0  0  0  0  0  0  0  0  0  0
   -1.3232   -0.0549   -0.6432 C   0  0  2  0  0  0  0  0  0  0  0  0
   -1.9765    1.1491   -1.3334 C   0  0  0  0  0  0  0  0  0  0  0  0
   -3.3725    0.7205   -1.2759 N   0  0  0  0  0  0  0  0  0  0  0  0
   -3.4884    0.4999    0.1738 C   0  0  0  0  0  0  0  0  0  0  0  0
   -2.2154   -0.2169    0.5652 C   0  0  1  0  0  0  0  0  0  0  0  0
   -2.5289   -1.5602    0.7479 O   0  0  0  0  0  0  0  0  0  0  0  0
    0.7138    0.2169    0.7584 C   0  0  0  0  0  0  0  0  0  0  0  0
    3.7137    0.7301    0.9009 H   0  0  0  0  0  0  0  0  0  0  0  0
    2.5074    1.9671    0.3284 H   0  0  0  0  0  0  0  0  0  0  0  0
    3.6089    1.0910   -0.8391 H   0  0  0  0  0  0  0  0  0  0  0  0
    1.5925   -2.1319   -0.0496 H   0  0  0  0  0  0  0  0  0  0  0  0
    2.8726   -1.6183    1.1310 H   0  0  0  0  0  0  0  0  0  0  0  0
    4.3289   -1.4715   -0.5564 H   0  0  0  0  0  0  0  0  0  0  0  0
    1.1321   -0.6915   -1.9883 H   0  0  0  0  0  0  0  0  0  0  0  0
    1.3081    1.1205   -1.7363 H   0  0  0  0  0  0  0  0  0  0  0  0
   -1.5514   -0.9218   -1.3130 H   0  0  0  0  0  0  0  0  0  0  0  0
   -1.6281    1.2571   -2.3801 H   0  0  0  0  0  0  0  0  0  0  0  0
   -1.8432    2.0468   -0.7304 H   0  0  0  0  0  0  0  0  0  0  0  0
   -3.3777   -0.2562   -1.6974 H   0  0  0  0  0  0  0  0  0  0  0  0
   -3.4598    1.5289    0.6293 H   0  0  0  0  0  0  0  0  0  0  0  0
   -4.3992   -0.0497    0.4409 H   0  0  0  0  0  0  0  0  0  0  0  0
   -1.7692    0.2305    1.4729 H   0  0  0  0  0  0  0  0  0  0  0  0
   -2.1869   -2.1420    0.0211 H   0  0  0  0  0  0  0  0  0  0  0  0
    0.7898    1.2043    1.2486 H   0  0  0  0  0  0  0  0  0  0  0  0
    0.5646   -0.5928    1.5091 H   0  0  0  0  0  0  0  0  0  0  0  0
  1  2  1  0
  2  3  1  0
  3  4  1  0
  2  5  1  0
  5  6  1  0
  6  7  1  0
  7  8  1  0
  8  9  1  0
  9 10  1  0
 10 11  1  0
 11 12  1  0
  6 13  1  0
 13  2  1  0
 11  7  1  0
  1 14  1  0
  1 15  1  0
  1 16  1  0
  3 17  1  0
  3 18  1  0
  4 19  1  0
  5 20  1  0
  5 21  1  0
  7 22  1  6
  8 23  1  0
  8 24  1  0
  9 25  1  0
 10 26  1  0
 10 27  1  0
 11 28  1  1
 12 29  1  0
 13 30  1  0
 13 31  1  0
M  END
$$$$
