
     RDKit          3D

 23 23  0  0  0  0  0  0  0  0999 V2000
    2.8747    1.1885   -1.0594 O   0  0  0  0  0  0  0  0  0  0  0  0
    3.4636    0.7820   -0.0283 C   0  0  0  0  0  0  0  0  0  0  0  0
    4.8464    0.8631    0.0051 O   0  0  0  0  0  0  0  0  0  0  0  0
    2.7190    0.2221    1.1438 C   0  0  0  0  0  0  0  0  0  0  0  0
    1.3166    0.2461    0.8650 N   0  0  0  0  0  0  0  0  0  0  0  0
    0.7085   -0.4377   -0.2242 C   0  0  0  0  0  0  0  0  0  0  0  0
    1.4767   -1.0979   -0.9741 O   0  0  0  0  0  0  0  0  0  0  0  0
   -0.6842   -0.3865   -0.4630 N   0  0  0  0  0  0  0  0  0  0  0  0
   -1.6303    0.3445    0.3463 C   0  0  0  0  0  0  0  0  0  0  0  0
   -2.8283   -0.6134    0.2565 C   0  0  1  0  0  0  0  0  0  0  0  0
   -4.0224    0.0792    0.4191 O   0  0  0  0  0  0  0  0  0  0  0  0
   -2.6497   -1.0892   -1.1708 C   0  0  0  0  0  0  0  0  0  0  0  0
   -1.3145   -1.0056   -1.4677 O   0  0  0  0  0  0  0  0  0  0  0  0
    5.3425    1.6236   -0.4465 H   0  0  0  0  0  0  0  0  0  0  0  0
    2.9476    0.8961    1.9925 H   0  0  0  0  0  0  0  0  0  0  0  0
    3.0448   -0.8187    1.3251 H   0  0  0  0  0  0  0  0  0  0  0  0
    0.6841    0.7910    1.4844 H   0  0  0  0  0  0  0  0  0  0  0  0
   -1.9738    1.2761   -0.1594 H   0  0  0  0  0  0  0  0  0  0  0  0
   -1.3295    0.4928    1.3794 H   0  0  0  0  0  0  0  0  0  0  0  0
   -2.7220   -1.4228    0.9978 H   0  0  0  0  0  0  0  0  0  0  0  0
   -3.9947    0.5120    1.2936 H   0  0  0  0  0  0  0  0  0  0  0  0
   -3.0822   -2.0966   -1.3290 H   0  0  0  0  0  0  0  0  0  0  0  0
   -3.1929   -0.3487   -1.8130 H   0  0  0  0  0  0  0  0  0  0  0  0
  1  2  2  0
  2  3  1  0
  2  4  1  0
  4  5  1  0
  5  6  1  0
  6  7  2  0
  6  8  1  0
  8  9  1  0
  9 10  1  0
 10 11  1  0
 10 12  1  0
 12 13  1  0
 13  8  1  0
  3 14  1  0
  4 15  1  0
  4 16  1  0
  5 17  1  0
  9 18  1  0
  9 19  1  0
 10 20  1  1
 11 21  1  0
 12 22  1  0
 12 23  1  0
M  END
$$$$

     RDKit          3D

 23 23  0  0  0  0  0  0  0  0999 V2000
    3.3700   -1.4482   -0.1285 O   0  0  0  0  0  0  0  0  0  0  0  0
    3.7250   -0.4653    0.5593 C   0  0  0  0  0  0  0  0  0  0  0  0
    5.0635   -0.2813    0.8234 O   0  0  0  0  0  0  0  0  0  0  0  0
    2.7100    0.4609    1.0637 C   0  0  0  0  0  0  0  0  0  0  0  0
    1.3588    0.0584    0.6536 N   0  0  0  0  0  0  0  0  0  0  0  0
    0.2149    0.7992    1.0217 C   0  0  0  0  0  0  0  0  0  0  0  0
    0.3488    1.8301    1.7178 O   0  0  0  0  0  0  0  0  0  0  0  0
   -1.1105    0.4100    0.6230 N   0  0  0  0  0  0  0  0  0  0  0  0
   -1.4587   -0.7541   -0.1842 C   0  0  0  0  0  0  0  0  0  0  0  0
   -2.4887   -0.1097   -1.1057 C   0  0  1  0  0  0  0  0  0  0  0  0
   -3.3862   -1.0690   -1.5598 O   0  0  0  0  0  0  0  0  0  0  0  0
   -3.1365    0.8474   -0.1260 C   0  0  0  0  0  0  0  0  0  0  0  0
   -2.2584    1.0310    0.9118 O   0  0  0  0  0  0  0  0  0  0  0  0
    5.8102   -0.6550    0.2322 H   0  0  0  0  0  0  0  0  0  0  0  0
    2.8439    1.5064    0.7141 H   0  0  0  0  0  0  0  0  0  0  0  0
    2.6693    0.5105    2.1774 H   0  0  0  0  0  0  0  0  0  0  0  0
    1.2215   -0.7979    0.0727 H   0  0  0  0  0  0  0  0  0  0  0  0
   -1.9536   -1.4668    0.5050 H   0  0  0  0  0  0  0  0  0  0  0  0
   -0.6136   -1.1719   -0.7321 H   0  0  0  0  0  0  0  0  0  0  0  0
   -1.9533    0.4105   -1.9190 H   0  0  0  0  0  0  0  0  0  0  0  0
   -3.4615   -1.7463   -0.8260 H   0  0  0  0  0  0  0  0  0  0  0  0
   -4.0530    0.3157    0.2610 H   0  0  0  0  0  0  0  0  0  0  0  0
   -3.4617    1.7856   -0.6158 H   0  0  0  0  0  0  0  0  0  0  0  0
  1  2  2  0
  2  3  1  0
  2  4  1  0
  4  5  1  0
  5  6  1  0
  6  7  2  0
  6  8  1  0
  8  9  1  0
  9 10  1  0
 10 11  1  0
 10 12  1  0
 12 13  1  0
 13  8  1  0
  3 14  1  0
  4 15  1  0
  4 16  1  0
  5 17  1  0
  9 18  1  0
  9 19  1  0
 10 20  1  6
 11 21  1  0
 12 22  1  0
 12 23  1  0
M  END
$$$$

     RDKit          3D

 23 23  0  0  0  0  0  0  0  0999 V2000
    2.5990    0.0973    1.4616 O   0  0  0  0  0  0  0  0  0  0  0  0
    3.4220    0.1010    0.5108 C   0  0  0  0  0  0  0  0  0  0  0  0
    4.7499   -0.1598    0.8116 O   0  0  0  0  0  0  0  0  0  0  0  0
    2.9742    0.3773   -0.8867 C   0  0  0  0  0  0  0  0  0  0  0  0
    1.5459    0.6162   -0.9235 N   0  0  0  0  0  0  0  0  0  0  0  0
    0.6120   -0.3722   -0.4903 C   0  0  0  0  0  0  0  0  0  0  0  0
    1.0909   -1.4451   -0.0813 O   0  0  0  0  0  0  0  0  0  0  0  0
   -0.7817   -0.1688   -0.5144 N   0  0  0  0  0  0  0  0  0  0  0  0
   -1.7710   -1.1270   -0.0910 C   0  0  0  0  0  0  0  0  0  0  0  0
   -3.0170   -0.2739    0.0161 C   0  0  1  0  0  0  0  0  0  0  0  0
   -3.6976   -0.4968    1.2051 O   0  0  0  0  0  0  0  0  0  0  0  0
   -2.4040    1.1290    0.0273 C   0  0  0  0  0  0  0  0  0  0  0  0
   -1.3901    0.9566   -0.9391 O   0  0  0  0  0  0  0  0  0  0  0  0
    5.0422   -0.0906    1.7901 H   0  0  0  0  0  0  0  0  0  0  0  0
    3.4805    1.2760   -1.2983 H   0  0  0  0  0  0  0  0  0  0  0  0
    3.2687   -0.4734   -1.5399 H   0  0  0  0  0  0  0  0  0  0  0  0
    1.1473    1.5183   -1.2675 H   0  0  0  0  0  0  0  0  0  0  0  0
   -1.5264   -1.5710    0.9018 H   0  0  0  0  0  0  0  0  0  0  0  0
   -1.9172   -1.9528   -0.7961 H   0  0  0  0  0  0  0  0  0  0  0  0
   -3.6985   -0.4022   -0.8493 H   0  0  0  0  0  0  0  0  0  0  0  0
   -4.6560   -0.7180    1.0610 H   0  0  0  0  0  0  0  0  0  0  0  0
   -3.1379    1.8873   -0.2704 H   0  0  0  0  0  0  0  0  0  0  0  0
   -1.9352    1.2927    0.9974 H   0  0  0  0  0  0  0  0  0  0  0  0
  1  2  2  0
  2  3  1  0
  2  4  1  0
  4  5  1  0
  5  6  1  0
  6  7  2  0
  6  8  1  0
  8  9  1  0
  9 10  1  0
 10 11  1  0
 10 12  1  0
 12 13  1  0
 13  8  1  0
  3 14  1  0
  4 15  1  0
  4 16  1  0
  5 17  1  0
  9 18  1  0
  9 19  1  0
 10 20  1  6
 11 21  1  0
 12 22  1  0
 12 23  1  0
M  END
$$$$

     RDKit          3D

 23 23  0  0  0  0  0  0  0  0999 V2000
   -3.6493    1.1745    0.8764 O   0  0  0  0  0  0  0  0  0  0  0  0
   -3.3834    0.3444   -0.1194 C   0  0  0  0  0  0  0  0  0  0  0  0
   -3.4615    0.8842   -1.3960 O   0  0  0  0  0  0  0  0  0  0  0  0
   -3.0193   -1.0759    0.1291 C   0  0  0  0  0  0  0  0  0  0  0  0
   -1.5831   -1.3039   -0.0328 N   0  0  0  0  0  0  0  0  0  0  0  0
   -0.6968   -0.2266   -0.0034 C   0  0  0  0  0  0  0  0  0  0  0  0
   -1.3090    0.9434    0.0942 O   0  0  0  0  0  0  0  0  0  0  0  0
    0.6802   -0.1874   -0.0743 N   0  0  0  0  0  0  0  0  0  0  0  0
    1.8182   -0.9693    0.2491 C   0  0  0  0  0  0  0  0  0  0  0  0
    2.5620    0.2753    0.9028 C   0  0  1  0  0  0  0  0  0  0  0  0
    3.8040    0.0212    1.3182 O   0  0  0  0  0  0  0  0  0  0  0  0
    2.4593    1.1438   -0.3705 C   0  0  0  0  0  0  0  0  0  0  0  0
    1.2372    0.8512   -0.9092 O   0  0  0  0  0  0  0  0  0  0  0  0
   -3.2187    1.8784   -1.5490 H   0  0  0  0  0  0  0  0  0  0  0  0
   -3.6047   -1.6782   -0.6216 H   0  0  0  0  0  0  0  0  0  0  0  0
   -3.3371   -1.3348    1.1505 H   0  0  0  0  0  0  0  0  0  0  0  0
   -1.2333   -2.2583   -0.1874 H   0  0  0  0  0  0  0  0  0  0  0  0
    2.3760   -1.3187   -0.5978 H   0  0  0  0  0  0  0  0  0  0  0  0
    1.6800   -1.7069    1.0824 H   0  0  0  0  0  0  0  0  0  0  0  0
    1.8346    0.7129    1.6388 H   0  0  0  0  0  0  0  0  0  0  0  0
    4.1900    0.8814    1.6524 H   0  0  0  0  0  0  0  0  0  0  0  0
    2.5869    2.2048   -0.1390 H   0  0  0  0  0  0  0  0  0  0  0  0
    3.2678    0.7442   -1.0493 H   0  0  0  0  0  0  0  0  0  0  0  0
  1  2  2  0
  2  3  1  0
  2  4  1  0
  4  5  1  0
  5  6  1  0
  6  7  2  0
  6  8  1  0
  8  9  1  0
  9 10  1  0
 10 11  1  0
 10 12  1  0
 12 13  1  0
 13  8  1  0
  3 14  1  0
  4 15  1  0
  4 16  1  0
  5 17  1  0
  9 18  1  0
  9 19  1  0
 10 20  1  1
 11 21  1  0
 12 22  1  0
 12 23  1  0
M  END
$$$$

     RDKit          3D

 23 23  0  0  0  0  0  0  0  0999 V2000
    2.5581    1.2744    1.2284 O   0  0  0  0  0  0  0  0  0  0  0  0
    3.3172    0.4354    0.6967 C   0  0  0  0  0  0  0  0  0  0  0  0
    4.6357    0.2834    1.1576 O   0  0  0  0  0  0  0  0  0  0  0  0
    2.8863   -0.4460   -0.4414 C   0  0  0  0  0  0  0  0  0  0  0  0
    1.5172   -0.1587   -0.7820 N   0  0  0  0  0  0  0  0  0  0  0  0
    0.5311   -0.3416    0.2136 C   0  0  0  0  0  0  0  0  0  0  0  0
    0.8703   -0.7444    1.3537 O   0  0  0  0  0  0  0  0  0  0  0  0
   -0.8174   -0.0694   -0.0873 N   0  0  0  0  0  0  0  0  0  0  0  0
   -1.9379   -0.2160    0.8493 C   0  0  0  0  0  0  0  0  0  0  0  0
   -3.1197    0.0171   -0.0687 C   0  0  1  0  0  0  0  0  0  0  0  0
   -3.4095    1.3767   -0.0354 O   0  0  0  0  0  0  0  0  0  0  0  0
   -2.4907   -0.3213   -1.4046 C   0  0  0  0  0  0  0  0  0  0  0  0
   -1.2718    0.3644   -1.2779 O   0  0  0  0  0  0  0  0  0  0  0  0
    5.0797    1.1081    1.5893 H   0  0  0  0  0  0  0  0  0  0  0  0
    3.5156   -0.2835   -1.3221 H   0  0  0  0  0  0  0  0  0  0  0  0
    3.0245   -1.4838   -0.0771 H   0  0  0  0  0  0  0  0  0  0  0  0
    1.2842    0.1731   -1.7406 H   0  0  0  0  0  0  0  0  0  0  0  0
   -1.8822    0.4998    1.6779 H   0  0  0  0  0  0  0  0  0  0  0  0
   -1.9286   -1.2754    1.2046 H   0  0  0  0  0  0  0  0  0  0  0  0
   -3.9821   -0.6169    0.1704 H   0  0  0  0  0  0  0  0  0  0  0  0
   -3.0466    1.7802    0.8022 H   0  0  0  0  0  0  0  0  0  0  0  0
   -3.0912    0.0406   -2.2551 H   0  0  0  0  0  0  0  0  0  0  0  0
   -2.2424   -1.3960   -1.4517 H   0  0  0  0  0  0  0  0  0  0  0  0
  1  2  2  0
  2  3  1  0
  2  4  1  0
  4  5  1  0
  5  6  1  0
  6  7  2  0
  6  8  1  0
  8  9  1  0
  9 10  1  0
 10 11  1  0
 10 12  1  0
 12 13  1  0
 13  8  1  0
  3 14  1  0
  4 15  1  0
  4 16  1  0
  5 17  1  0
  9 18  1  0
  9 19  1  0
 10 20  1  1
 11 21  1  0
 12 22  1  0
 12 23  1  0
M  END
$$$$

     RDKit          3D

 23 23  0  0  0  0  0  0  0  0999 V2000
    2.7289    1.4775   -0.3021 O   0  0  0  0  0  0  0  0  0  0  0  0
    3.4259    0.4603   -0.1007 C   0  0  0  0  0  0  0  0  0  0  0  0
    4.7987    0.5222   -0.2929 O   0  0  0  0  0  0  0  0  0  0  0  0
    2.8003   -0.8119    0.3415 C   0  0  0  0  0  0  0  0  0  0  0  0
    1.3809   -0.6325    0.4677 N   0  0  0  0  0  0  0  0  0  0  0  0
    0.5961   -0.2521   -0.6475 C   0  0  0  0  0  0  0  0  0  0  0  0
    1.1833   -0.0758   -1.7577 O   0  0  0  0  0  0  0  0  0  0  0  0
   -0.8283   -0.0653   -0.5469 N   0  0  0  0  0  0  0  0  0  0  0  0
   -1.5697   -0.2475    0.6844 C   0  0  0  0  0  0  0  0  0  0  0  0
   -2.9615    0.2007    0.2637 C   0  0  1  0  0  0  0  0  0  0  0  0
   -3.0872    1.5725    0.3711 O   0  0  0  0  0  0  0  0  0  0  0  0
   -2.9104   -0.1462   -1.2292 C   0  0  0  0  0  0  0  0  0  0  0  0
   -1.6271    0.2906   -1.5503 O   0  0  0  0  0  0  0  0  0  0  0  0
    5.3004    1.3860   -0.0532 H   0  0  0  0  0  0  0  0  0  0  0  0
    2.9599   -1.5383   -0.4924 H   0  0  0  0  0  0  0  0  0  0  0  0
    3.2667   -1.2026    1.2562 H   0  0  0  0  0  0  0  0  0  0  0  0
    0.9013   -0.7777    1.3783 H   0  0  0  0  0  0  0  0  0  0  0  0
   -1.1689    0.3193    1.5238 H   0  0  0  0  0  0  0  0  0  0  0  0
   -1.6501   -1.3470    0.9022 H   0  0  0  0  0  0  0  0  0  0  0  0
   -3.7542   -0.3579    0.7822 H   0  0  0  0  0  0  0  0  0  0  0  0
   -3.1639    2.0410   -0.4953 H   0  0  0  0  0  0  0  0  0  0  0  0
   -2.9416   -1.2339   -1.3944 H   0  0  0  0  0  0  0  0  0  0  0  0
   -3.6795    0.4186   -1.7804 H   0  0  0  0  0  0  0  0  0  0  0  0
  1  2  2  0
  2  3  1  0
  2  4  1  0
  4  5  1  0
  5  6  1  0
  6  7  2  0
  6  8  1  0
  8  9  1  0
  9 10  1  0
 10 11  1  0
 10 12  1  0
 12 13  1  0
 13  8  1  0
  3 14  1  0
  4 15  1  0
  4 16  1  0
  5 17  1  0
  9 18  1  0
  9 19  1  0
 10 20  1  1
 11 21  1  0
 12 22  1  0
 12 23  1  0
M  END
$$$$

     RDKit          3D

 23 23  0  0  0  0  0  0  0  0999 V2000
   -2.7299    0.5407   -1.1858 O   0  0  0  0  0  0  0  0  0  0  0  0
   -3.4701   -0.0671   -0.3839 C   0  0  0  0  0  0  0  0  0  0  0  0
   -4.8275    0.1641   -0.4176 O   0  0  0  0  0  0  0  0  0  0  0  0
   -2.8506   -1.0134    0.5711 C   0  0  0  0  0  0  0  0  0  0  0  0
   -1.4196   -1.0717    0.4017 N   0  0  0  0  0  0  0  0  0  0  0  0
   -0.6349    0.0940    0.5699 C   0  0  0  0  0  0  0  0  0  0  0  0
   -1.2072    1.1706    0.8675 O   0  0  0  0  0  0  0  0  0  0  0  0
    0.7794    0.0114    0.3968 N   0  0  0  0  0  0  0  0  0  0  0  0
    1.6871    1.1109    0.5371 C   0  0  0  0  0  0  0  0  0  0  0  0
    2.9127    0.6427   -0.2125 C   0  0  1  0  0  0  0  0  0  0  0  0
    3.9316    0.3676    0.6869 O   0  0  0  0  0  0  0  0  0  0  0  0
    2.3954   -0.6360   -0.8588 C   0  0  0  0  0  0  0  0  0  0  0  0
    1.4899   -1.0792    0.0809 O   0  0  0  0  0  0  0  0  0  0  0  0
   -5.1949    1.0896   -0.6116 H   0  0  0  0  0  0  0  0  0  0  0  0
   -3.0607   -0.6449    1.6154 H   0  0  0  0  0  0  0  0  0  0  0  0
   -3.3376   -1.9826    0.4499 H   0  0  0  0  0  0  0  0  0  0  0  0
   -0.9415   -1.9708    0.1533 H   0  0  0  0  0  0  0  0  0  0  0  0
    1.2883    1.9943    0.0078 H   0  0  0  0  0  0  0  0  0  0  0  0
    1.8889    1.2871    1.6067 H   0  0  0  0  0  0  0  0  0  0  0  0
    3.2772    1.3673   -0.9438 H   0  0  0  0  0  0  0  0  0  0  0  0
    4.8046    0.3637    0.2448 H   0  0  0  0  0  0  0  0  0  0  0  0
    3.2731   -1.3197   -0.9362 H   0  0  0  0  0  0  0  0  0  0  0  0
    1.9465   -0.4185   -1.8489 H   0  0  0  0  0  0  0  0  0  0  0  0
  1  2  2  0
  2  3  1  0
  2  4  1  0
  4  5  1  0
  5  6  1  0
  6  7  2  0
  6  8  1  0
  8  9  1  0
  9 10  1  0
 10 11  1  0
 10 12  1  0
 12 13  1  0
 13  8  1  0
  3 14  1  0
  4 15  1  0
  4 16  1  0
  5 17  1  0
  9 18  1  0
  9 19  1  0
 10 20  1  6
 11 21  1  0
 12 22  1  0
 12 23  1  0
M  END
$$$$

     RDKit          3D

 23 23  0  0  0  0  0  0  0  0999 V2000
   -2.7493    1.5207   -0.7653 O   0  0  0  0  0  0  0  0  0  0  0  0
   -3.4894    0.6126   -0.3100 C   0  0  0  0  0  0  0  0  0  0  0  0
   -4.8598    0.6196   -0.5156 O   0  0  0  0  0  0  0  0  0  0  0  0
   -2.8756   -0.4957    0.4684 C   0  0  0  0  0  0  0  0  0  0  0  0
   -1.4416   -0.3450    0.5811 N   0  0  0  0  0  0  0  0  0  0  0  0
   -0.6444   -0.3146   -0.6085 C   0  0  0  0  0  0  0  0  0  0  0  0
   -1.2471   -0.4232   -1.7059 O   0  0  0  0  0  0  0  0  0  0  0  0
    0.7754   -0.1662   -0.5291 N   0  0  0  0  0  0  0  0  0  0  0  0
    1.5508   -0.0347    0.6927 C   0  0  0  0  0  0  0  0  0  0  0  0
    2.9114    0.3413    0.1362 C   0  0  1  0  0  0  0  0  0  0  0  0
    3.9564   -0.1453    0.8693 O   0  0  0  0  0  0  0  0  0  0  0  0
    2.8601   -0.4076   -1.2030 C   0  0  0  0  0  0  0  0  0  0  0  0
    1.5655   -0.1315   -1.6049 O   0  0  0  0  0  0  0  0  0  0  0  0
   -5.3352    1.5056   -0.6502 H   0  0  0  0  0  0  0  0  0  0  0  0
   -3.1354   -1.4869    0.0200 H   0  0  0  0  0  0  0  0  0  0  0  0
   -3.2874   -0.4583    1.4979 H   0  0  0  0  0  0  0  0  0  0  0  0
   -0.9412   -0.2545    1.5077 H   0  0  0  0  0  0  0  0  0  0  0  0
    1.5854   -0.9989    1.2403 H   0  0  0  0  0  0  0  0  0  0  0  0
    1.1135    0.7293    1.3338 H   0  0  0  0  0  0  0  0  0  0  0  0
    2.9105    1.4236   -0.0341 H   0  0  0  0  0  0  0  0  0  0  0  0
    4.2365    0.4520    1.6063 H   0  0  0  0  0  0  0  0  0  0  0  0
    2.9340   -1.4908   -0.9900 H   0  0  0  0  0  0  0  0  0  0  0  0
    3.6070   -0.0517   -1.9077 H   0  0  0  0  0  0  0  0  0  0  0  0
  1  2  2  0
  2  3  1  0
  2  4  1  0
  4  5  1  0
  5  6  1  0
  6  7  2  0
  6  8  1  0
  8  9  1  0
  9 10  1  0
 10 11  1  0
 10 12  1  0
 12 13  1  0
 13  8  1  0
  3 14  1  0
  4 15  1  0
  4 16  1  0
  5 17  1  0
  9 18  1  0
  9 19  1  0
 10 20  1  6
 11 21  1  0
 12 22  1  0
 12 23  1  0
M  END
$$$$
