
     RDKit          3D

 35 36  0  0  0  0  0  0  0  0999 V2000
    4.2959   -0.2578    0.1294 C   0  0  0  0  0  0  0  0  0  0  0  0
    3.1815    0.1971   -0.6454 N   0  0  0  0  0  0  0  0  0  0  0  0
    2.4959   -0.9094   -1.2472 C   0  0  0  0  0  0  0  0  0  0  0  0
    1.0749   -0.4744   -1.5255 C   0  0  0  0  0  0  0  0  0  0  0  0
    0.4253   -0.3370   -0.2417 N   0  0  0  0  0  0  0  0  0  0  0  0
   -0.9602   -0.1400   -0.4448 C   0  0  2  0  0  0  0  0  0  0  0  0
   -1.6166    0.9151    0.3878 C   0  0  0  0  0  0  0  0  0  0  0  0
   -3.0219    0.7018    0.0440 N   0  0  0  0  0  0  0  0  0  0  0  0
   -3.9118    1.0929    1.1111 C   0  0  0  0  0  0  0  0  0  0  0  0
   -3.1958   -0.7101   -0.1684 C   0  0  0  0  0  0  0  0  0  0  0  0
   -1.8154   -1.3467   -0.0729 C   0  0  2  0  0  0  0  0  0  0  0  0
   -1.5908   -1.6753    1.2606 O   0  0  0  0  0  0  0  0  0  0  0  0
    1.0946    0.5904    0.6121 C   0  0  0  0  0  0  0  0  0  0  0  0
    2.3421    1.1601   -0.0081 C   0  0  0  0  0  0  0  0  0  0  0  0
    4.6126   -1.2403   -0.3038 H   0  0  0  0  0  0  0  0  0  0  0  0
    5.1983    0.3967    0.0289 H   0  0  0  0  0  0  0  0  0  0  0  0
    4.0887   -0.4135    1.1966 H   0  0  0  0  0  0  0  0  0  0  0  0
    2.9569   -1.1809   -2.2183 H   0  0  0  0  0  0  0  0  0  0  0  0
    2.4391   -1.7813   -0.5760 H   0  0  0  0  0  0  0  0  0  0  0  0
    0.5898   -1.3129   -2.0634 H   0  0  0  0  0  0  0  0  0  0  0  0
    1.0352    0.4335   -2.1428 H   0  0  0  0  0  0  0  0  0  0  0  0
   -1.1909    0.0779   -1.5068 H   0  0  0  0  0  0  0  0  0  0  0  0
   -1.5435    0.7538    1.4739 H   0  0  0  0  0  0  0  0  0  0  0  0
   -1.3014    1.9459    0.1241 H   0  0  0  0  0  0  0  0  0  0  0  0
   -4.2356    2.1320    0.9546 H   0  0  0  0  0  0  0  0  0  0  0  0
   -4.8319    0.4655    0.9954 H   0  0  0  0  0  0  0  0  0  0  0  0
   -3.4866    0.8968    2.1099 H   0  0  0  0  0  0  0  0  0  0  0  0
   -3.8611   -1.1761    0.5967 H   0  0  0  0  0  0  0  0  0  0  0  0
   -3.5799   -0.9051   -1.2000 H   0  0  0  0  0  0  0  0  0  0  0  0
   -1.6837   -2.1886   -0.7631 H   0  0  0  0  0  0  0  0  0  0  0  0
   -0.8505   -1.1548    1.6632 H   0  0  0  0  0  0  0  0  0  0  0  0
    1.4286    0.0174    1.5150 H   0  0  0  0  0  0  0  0  0  0  0  0
    0.4805    1.4274    0.9702 H   0  0  0  0  0  0  0  0  0  0  0  0
    2.0222    1.8889   -0.7939 H   0  0  0  0  0  0  0  0  0  0  0  0
    2.9153    1.7274    0.7486 H   0  0  0  0  0  0  0  0  0  0  0  0
  1  2  1  0
  2  3  1  0
  3  4  1  0
  4  5  1  0
  5  6  1  0
  6  7  1  0
  7  8  1  0
  8  9  1  0
  8 10  1  0
 10 11  1  0
 11 12  1  0
  5 13  1  0
 13 14  1  0
 14  2  1  0
 11  6  1  0
  1 15  1  0
  1 16  1  0
  1 17  1  0
  3 18  1  0
  3 19  1  0
  4 20  1  0
  4 21  1  0
  6 22  1  6
  7 23  1  0
  7 24  1  0
  9 25  1  0
  9 26  1  0
  9 27  1  0
 10 28  1  0
 10 29  1  0
 11 30  1  6
 12 31  1  0
 13 32  1  0
 13 33  1  0
 14 34  1  0
 14 35  1  0
M  END
$$$$

     RDKit          3D

 35 36  0  0  0  0  0  0  0  0999 V2000
   -4.1455   -0.7136   -0.1454 C   0  0  0  0  0  0  0  0  0  0  0  0
   -3.2395    0.3435   -0.5886 N   0  0  0  0  0  0  0  0  0  0  0  0
   -2.3261   -0.2476   -1.5483 C   0  0  0  0  0  0  0  0  0  0  0  0
   -1.2152   -0.8826   -0.6983 C   0  0  0  0  0  0  0  0  0  0  0  0
   -0.3368    0.2035   -0.3501 N   0  0  0  0  0  0  0  0  0  0  0  0
    0.7625   -0.2074    0.4870 C   0  0  2  0  0  0  0  0  0  0  0  0
    1.7743    0.9089    0.6114 C   0  0  0  0  0  0  0  0  0  0  0  0
    2.9384    0.4173   -0.0924 N   0  0  0  0  0  0  0  0  0  0  0  0
    4.1456    1.1083    0.1540 C   0  0  0  0  0  0  0  0  0  0  0  0
    2.9628   -0.9792    0.3745 C   0  0  0  0  0  0  0  0  0  0  0  0
    1.5339   -1.3621   -0.0522 C   0  0  2  0  0  0  0  0  0  0  0  0
    1.5963   -1.3546   -1.4606 O   0  0  0  0  0  0  0  0  0  0  0  0
   -1.0988    1.2488    0.2688 C   0  0  0  0  0  0  0  0  0  0  0  0
   -2.5384    0.9734    0.4813 C   0  0  0  0  0  0  0  0  0  0  0  0
   -3.6365   -1.4699    0.4818 H   0  0  0  0  0  0  0  0  0  0  0  0
   -4.4668   -1.2593   -1.0673 H   0  0  0  0  0  0  0  0  0  0  0  0
   -5.0499   -0.3259    0.3345 H   0  0  0  0  0  0  0  0  0  0  0  0
   -1.8903    0.6248   -2.1180 H   0  0  0  0  0  0  0  0  0  0  0  0
   -2.7951   -0.9912   -2.1876 H   0  0  0  0  0  0  0  0  0  0  0  0
   -1.6229   -1.3455    0.1989 H   0  0  0  0  0  0  0  0  0  0  0  0
   -0.7507   -1.6456   -1.3340 H   0  0  0  0  0  0  0  0  0  0  0  0
    0.3632   -0.4839    1.5023 H   0  0  0  0  0  0  0  0  0  0  0  0
    2.0557    1.0695    1.6669 H   0  0  0  0  0  0  0  0  0  0  0  0
    1.4041    1.8703    0.2051 H   0  0  0  0  0  0  0  0  0  0  0  0
    4.9954    0.3671    0.0720 H   0  0  0  0  0  0  0  0  0  0  0  0
    4.3257    1.8042   -0.7181 H   0  0  0  0  0  0  0  0  0  0  0  0
    4.2426    1.6190    1.1085 H   0  0  0  0  0  0  0  0  0  0  0  0
    3.0681   -1.0215    1.4768 H   0  0  0  0  0  0  0  0  0  0  0  0
    3.7058   -1.5754   -0.1719 H   0  0  0  0  0  0  0  0  0  0  0  0
    1.2365   -2.3361    0.3418 H   0  0  0  0  0  0  0  0  0  0  0  0
    1.4135   -0.4166   -1.7494 H   0  0  0  0  0  0  0  0  0  0  0  0
   -0.9850    2.2009   -0.2892 H   0  0  0  0  0  0  0  0  0  0  0  0
   -0.6488    1.4571    1.2845 H   0  0  0  0  0  0  0  0  0  0  0  0
   -2.7343    0.4294    1.4519 H   0  0  0  0  0  0  0  0  0  0  0  0
   -3.0438    1.9721    0.6458 H   0  0  0  0  0  0  0  0  0  0  0  0
  1  2  1  0
  2  3  1  0
  3  4  1  0
  4  5  1  0
  5  6  1  0
  6  7  1  0
  7  8  1  0
  8  9  1  0
  8 10  1  0
 10 11  1  0
 11 12  1  0
  5 13  1  0
 13 14  1  0
 14  2  1  0
 11  6  1  0
  1 15  1  0
  1 16  1  0
  1 17  1  0
  3 18  1  0
  3 19  1  0
  4 20  1  0
  4 21  1  0
  6 22  1  1
  7 23  1  0
  7 24  1  0
  9 25  1  0
  9 26  1  0
  9 27  1  0
 10 28  1  0
 10 29  1  0
 11 30  1  1
 12 31  1  0
 13 32  1  0
 13 33  1  0
 14 34  1  0
 14 35  1  0
M  END
$$$$

     RDKit          3D

 35 36  0  0  0  0  0  0  0  0999 V2000
    3.8711    0.2134    0.7637 C   0  0  0  0  0  0  0  0  0  0  0  0
    3.0461    0.0276   -0.3896 N   0  0  0  0  0  0  0  0  0  0  0  0
    2.4930   -1.2897   -0.4341 C   0  0  0  0  0  0  0  0  0  0  0  0
    1.0504   -1.2171    0.0861 C   0  0  0  0  0  0  0  0  0  0  0  0
    0.2650   -0.5668   -0.9080 N   0  0  0  0  0  0  0  0  0  0  0  0
   -1.0602   -0.2238   -0.5396 C   0  0  2  0  0  0  0  0  0  0  0  0
   -1.1926    0.7638    0.5924 C   0  0  0  0  0  0  0  0  0  0  0  0
   -2.6360    0.7358    0.8462 N   0  0  0  0  0  0  0  0  0  0  0  0
   -3.2620    1.8427    0.1630 C   0  0  0  0  0  0  0  0  0  0  0  0
   -3.1311   -0.5448    0.4321 C   0  0  0  0  0  0  0  0  0  0  0  0
   -1.8960   -1.3585    0.0069 C   0  0  2  0  0  0  0  0  0  0  0  0
   -1.3040   -1.8646    1.1719 O   0  0  0  0  0  0  0  0  0  0  0  0
    0.9789    0.5277   -1.4887 C   0  0  0  0  0  0  0  0  0  0  0  0
    2.0889    1.0681   -0.6251 C   0  0  0  0  0  0  0  0  0  0  0  0
    3.3487    0.0724    1.7312 H   0  0  0  0  0  0  0  0  0  0  0  0
    4.6647   -0.5885    0.7148 H   0  0  0  0  0  0  0  0  0  0  0  0
    4.4073    1.1777    0.7384 H   0  0  0  0  0  0  0  0  0  0  0  0
    2.4685   -1.6852   -1.4619 H   0  0  0  0  0  0  0  0  0  0  0  0
    3.0046   -1.9963    0.2755 H   0  0  0  0  0  0  0  0  0  0  0  0
    1.0229   -0.6537    1.0269 H   0  0  0  0  0  0  0  0  0  0  0  0
    0.7720   -2.2945    0.2204 H   0  0  0  0  0  0  0  0  0  0  0  0
   -1.6187    0.2016   -1.3984 H   0  0  0  0  0  0  0  0  0  0  0  0
   -0.8429    1.7713    0.3262 H   0  0  0  0  0  0  0  0  0  0  0  0
   -0.7217    0.3713    1.5182 H   0  0  0  0  0  0  0  0  0  0  0  0
   -3.7156    1.5185   -0.7871 H   0  0  0  0  0  0  0  0  0  0  0  0
   -4.0761    2.2263    0.8346 H   0  0  0  0  0  0  0  0  0  0  0  0
   -2.5706    2.6867    0.0084 H   0  0  0  0  0  0  0  0  0  0  0  0
   -3.7768   -0.3976   -0.4690 H   0  0  0  0  0  0  0  0  0  0  0  0
   -3.6674   -1.0341    1.2628 H   0  0  0  0  0  0  0  0  0  0  0  0
   -2.1503   -2.1220   -0.7240 H   0  0  0  0  0  0  0  0  0  0  0  0
   -1.9492   -2.4023    1.6902 H   0  0  0  0  0  0  0  0  0  0  0  0
    0.2966    1.3854   -1.7570 H   0  0  0  0  0  0  0  0  0  0  0  0
    1.4394    0.2151   -2.4530 H   0  0  0  0  0  0  0  0  0  0  0  0
    1.7394    1.5893    0.2807 H   0  0  0  0  0  0  0  0  0  0  0  0
    2.6136    1.8449   -1.2550 H   0  0  0  0  0  0  0  0  0  0  0  0
  1  2  1  0
  2  3  1  0
  3  4  1  0
  4  5  1  0
  5  6  1  0
  6  7  1  0
  7  8  1  0
  8  9  1  0
  8 10  1  0
 10 11  1  0
 11 12  1  0
  5 13  1  0
 13 14  1  0
 14  2  1  0
 11  6  1  0
  1 15  1  0
  1 16  1  0
  1 17  1  0
  3 18  1  0
  3 19  1  0
  4 20  1  0
  4 21  1  0
  6 22  1  6
  7 23  1  0
  7 24  1  0
  9 25  1  0
  9 26  1  0
  9 27  1  0
 10 28  1  0
 10 29  1  0
 11 30  1  6
 12 31  1  0
 13 32  1  0
 13 33  1  0
 14 34  1  0
 14 35  1  0
M  END
$$$$

     RDKit          3D

 35 36  0  0  0  0  0  0  0  0999 V2000
    3.8783    0.0799    0.4073 C   0  0  0  0  0  0  0  0  0  0  0  0
    3.0343   -0.4154   -0.6505 N   0  0  0  0  0  0  0  0  0  0  0  0
    2.1203   -1.4027   -0.1497 C   0  0  0  0  0  0  0  0  0  0  0  0
    1.0012   -0.6737    0.5880 C   0  0  0  0  0  0  0  0  0  0  0  0
    0.3702    0.1241   -0.3915 N   0  0  0  0  0  0  0  0  0  0  0  0
   -1.0118    0.3463   -0.3167 C   0  0  2  0  0  0  0  0  0  0  0  0
   -1.4870    1.1551    0.8559 C   0  0  0  0  0  0  0  0  0  0  0  0
   -2.8268    0.6158    1.0651 N   0  0  0  0  0  0  0  0  0  0  0  0
   -3.7478    1.0370    0.0397 C   0  0  0  0  0  0  0  0  0  0  0  0
   -2.5909   -0.8225    0.9608 C   0  0  0  0  0  0  0  0  0  0  0  0
   -1.8409   -0.9013   -0.3459 C   0  0  2  0  0  0  0  0  0  0  0  0
   -1.1121   -2.0646   -0.4847 O   0  0  0  0  0  0  0  0  0  0  0  0
    1.1927    1.2149   -0.7938 C   0  0  0  0  0  0  0  0  0  0  0  0
    2.4297    0.6086   -1.4472 C   0  0  0  0  0  0  0  0  0  0  0  0
    3.4223    1.0371    0.7603 H   0  0  0  0  0  0  0  0  0  0  0  0
    4.8814    0.2611   -0.0231 H   0  0  0  0  0  0  0  0  0  0  0  0
    3.9485   -0.6738    1.2240 H   0  0  0  0  0  0  0  0  0  0  0  0
    1.6318   -1.9588   -0.9865 H   0  0  0  0  0  0  0  0  0  0  0  0
    2.6659   -2.1034    0.4925 H   0  0  0  0  0  0  0  0  0  0  0  0
    1.5246   -0.0077    1.3186 H   0  0  0  0  0  0  0  0  0  0  0  0
    0.3631   -1.3476    1.1684 H   0  0  0  0  0  0  0  0  0  0  0  0
   -1.2979    0.9301   -1.2295 H   0  0  0  0  0  0  0  0  0  0  0  0
   -0.8755    0.9194    1.7379 H   0  0  0  0  0  0  0  0  0  0  0  0
   -1.5176    2.2437    0.6255 H   0  0  0  0  0  0  0  0  0  0  0  0
   -4.4181    1.8570    0.4026 H   0  0  0  0  0  0  0  0  0  0  0  0
   -4.4065    0.2045   -0.3015 H   0  0  0  0  0  0  0  0  0  0  0  0
   -3.2379    1.4255   -0.8544 H   0  0  0  0  0  0  0  0  0  0  0  0
   -3.5250   -1.4042    0.9559 H   0  0  0  0  0  0  0  0  0  0  0  0
   -1.9574   -1.0955    1.8337 H   0  0  0  0  0  0  0  0  0  0  0  0
   -2.6022   -0.9049   -1.1658 H   0  0  0  0  0  0  0  0  0  0  0  0
   -1.4666   -2.7201    0.1745 H   0  0  0  0  0  0  0  0  0  0  0  0
    0.6536    1.8287   -1.5278 H   0  0  0  0  0  0  0  0  0  0  0  0
    1.5237    1.8265    0.0587 H   0  0  0  0  0  0  0  0  0  0  0  0
    3.1528    1.4284   -1.5719 H   0  0  0  0  0  0  0  0  0  0  0  0
    2.1275    0.2153   -2.4291 H   0  0  0  0  0  0  0  0  0  0  0  0
  1  2  1  0
  2  3  1  0
  3  4  1  0
  4  5  1  0
  5  6  1  0
  6  7  1  0
  7  8  1  0
  8  9  1  0
  8 10  1  0
 10 11  1  0
 11 12  1  0
  5 13  1  0
 13 14  1  0
 14  2  1  0
 11  6  1  0
  1 15  1  0
  1 16  1  0
  1 17  1  0
  3 18  1  0
  3 19  1  0
  4 20  1  0
  4 21  1  0
  6 22  1  6
  7 23  1  0
  7 24  1  0
  9 25  1  0
  9 26  1  0
  9 27  1  0
 10 28  1  0
 10 29  1  0
 11 30  1  6
 12 31  1  0
 13 32  1  0
 13 33  1  0
 14 34  1  0
 14 35  1  0
M  END
$$$$

     RDKit          3D

 35 36  0  0  0  0  0  0  0  0999 V2000
    4.1209    0.2485   -0.0530 C   0  0  0  0  0  0  0  0  0  0  0  0
    3.1554   -0.3586    0.8363 N   0  0  0  0  0  0  0  0  0  0  0  0
    2.3922    0.6347    1.5708 C   0  0  0  0  0  0  0  0  0  0  0  0
    0.9227    0.4012    1.4873 C   0  0  0  0  0  0  0  0  0  0  0  0
    0.5272    0.4348    0.0944 N   0  0  0  0  0  0  0  0  0  0  0  0
   -0.8654    0.4228   -0.0976 C   0  0  2  0  0  0  0  0  0  0  0  0
   -1.6182   -0.7739    0.3261 C   0  0  0  0  0  0  0  0  0  0  0  0
   -2.8773   -0.7519   -0.4297 N   0  0  0  0  0  0  0  0  0  0  0  0
   -3.9679   -0.8387    0.5026 C   0  0  0  0  0  0  0  0  0  0  0  0
   -2.8956    0.4910   -1.1522 C   0  0  0  0  0  0  0  0  0  0  0  0
   -1.3980    0.7219   -1.4601 C   0  0  2  0  0  0  0  0  0  0  0  0
   -1.0218   -0.1902   -2.4248 O   0  0  0  0  0  0  0  0  0  0  0  0
    1.3064   -0.4185   -0.7374 C   0  0  0  0  0  0  0  0  0  0  0  0
    2.2388   -1.2251    0.1506 C   0  0  0  0  0  0  0  0  0  0  0  0
    4.3478   -0.4393   -0.9084 H   0  0  0  0  0  0  0  0  0  0  0  0
    5.0767    0.4007    0.4787 H   0  0  0  0  0  0  0  0  0  0  0  0
    3.7527    1.2059   -0.4863 H   0  0  0  0  0  0  0  0  0  0  0  0
    2.5793    1.6579    1.1290 H   0  0  0  0  0  0  0  0  0  0  0  0
    2.7254    0.6126    2.6171 H   0  0  0  0  0  0  0  0  0  0  0  0
    0.5505   -0.4561    2.0340 H   0  0  0  0  0  0  0  0  0  0  0  0
    0.4303    1.3099    1.9464 H   0  0  0  0  0  0  0  0  0  0  0  0
   -1.2626    1.2734    0.5596 H   0  0  0  0  0  0  0  0  0  0  0  0
   -1.1423   -1.7427    0.0645 H   0  0  0  0  0  0  0  0  0  0  0  0
   -1.8189   -0.7831    1.4184 H   0  0  0  0  0  0  0  0  0  0  0  0
   -4.9148   -0.9281   -0.0395 H   0  0  0  0  0  0  0  0  0  0  0  0
   -3.8242   -1.7595    1.1342 H   0  0  0  0  0  0  0  0  0  0  0  0
   -3.9753    0.0457    1.1835 H   0  0  0  0  0  0  0  0  0  0  0  0
   -3.1722    1.3199   -0.4669 H   0  0  0  0  0  0  0  0  0  0  0  0
   -3.4790    0.4635   -2.0776 H   0  0  0  0  0  0  0  0  0  0  0  0
   -1.2355    1.7740   -1.7722 H   0  0  0  0  0  0  0  0  0  0  0  0
   -1.7169   -0.3151   -3.1239 H   0  0  0  0  0  0  0  0  0  0  0  0
    1.9247    0.2109   -1.4103 H   0  0  0  0  0  0  0  0  0  0  0  0
    0.7451   -1.1347   -1.3659 H   0  0  0  0  0  0  0  0  0  0  0  0
    2.7745   -2.0049   -0.4331 H   0  0  0  0  0  0  0  0  0  0  0  0
    1.6154   -1.7423    0.9055 H   0  0  0  0  0  0  0  0  0  0  0  0
  1  2  1  0
  2  3  1  0
  3  4  1  0
  4  5  1  0
  5  6  1  0
  6  7  1  0
  7  8  1  0
  8  9  1  0
  8 10  1  0
 10 11  1  0
 11 12  1  0
  5 13  1  0
 13 14  1  0
 14  2  1  0
 11  6  1  0
  1 15  1  0
  1 16  1  0
  1 17  1  0
  3 18  1  0
  3 19  1  0
  4 20  1  0
  4 21  1  0
  6 22  1  1
  7 23  1  0
  7 24  1  0
  9 25  1  0
  9 26  1  0
  9 27  1  0
 10 28  1  0
 10 29  1  0
 11 30  1  6
 12 31  1  0
 13 32  1  0
 13 33  1  0
 14 34  1  0
 14 35  1  0
M  END
$$$$

     RDKit          3D

 35 36  0  0  0  0  0  0  0  0999 V2000
    4.3932   -0.2491   -1.0626 C   0  0  0  0  0  0  0  0  0  0  0  0
    3.1130    0.1598   -0.5130 N   0  0  0  0  0  0  0  0  0  0  0  0
    2.1668    0.4760   -1.5592 C   0  0  0  0  0  0  0  0  0  0  0  0
    0.9321    1.0546   -0.9118 C   0  0  0  0  0  0  0  0  0  0  0  0
    0.4783    0.2470    0.1131 N   0  0  0  0  0  0  0  0  0  0  0  0
   -0.8925    0.1501    0.3940 C   0  0  2  0  0  0  0  0  0  0  0  0
   -1.7579   -0.4474   -0.6941 C   0  0  0  0  0  0  0  0  0  0  0  0
   -3.1038   -0.0658   -0.3216 N   0  0  0  0  0  0  0  0  0  0  0  0
   -3.8206   -1.2605    0.0804 C   0  0  0  0  0  0  0  0  0  0  0  0
   -3.0239    0.8942    0.7616 C   0  0  0  0  0  0  0  0  0  0  0  0
   -1.6200    1.4622    0.5731 C   0  0  2  0  0  0  0  0  0  0  0  0
   -1.6777    2.1713   -0.6456 O   0  0  0  0  0  0  0  0  0  0  0  0
    1.1489   -0.9657    0.4298 C   0  0  0  0  0  0  0  0  0  0  0  0
    2.6417   -0.9014    0.3447 C   0  0  0  0  0  0  0  0  0  0  0  0
    5.1842   -0.0961   -0.3022 H   0  0  0  0  0  0  0  0  0  0  0  0
    4.4185   -1.3207   -1.3463 H   0  0  0  0  0  0  0  0  0  0  0  0
    4.6509    0.3534   -1.9467 H   0  0  0  0  0  0  0  0  0  0  0  0
    2.6664    1.2811   -2.1709 H   0  0  0  0  0  0  0  0  0  0  0  0
    1.9037   -0.3942   -2.1869 H   0  0  0  0  0  0  0  0  0  0  0  0
    0.1898    1.1911   -1.7304 H   0  0  0  0  0  0  0  0  0  0  0  0
    1.1797    2.0871   -0.5539 H   0  0  0  0  0  0  0  0  0  0  0  0
   -1.0534   -0.4417    1.3123 H   0  0  0  0  0  0  0  0  0  0  0  0
   -1.6192   -1.5451   -0.7581 H   0  0  0  0  0  0  0  0  0  0  0  0
   -1.4859    0.0535   -1.6460 H   0  0  0  0  0  0  0  0  0  0  0  0
   -4.3899   -1.6793   -0.7742 H   0  0  0  0  0  0  0  0  0  0  0  0
   -3.1491   -2.0615    0.4516 H   0  0  0  0  0  0  0  0  0  0  0  0
   -4.5606   -1.0346    0.8739 H   0  0  0  0  0  0  0  0  0  0  0  0
   -3.8044    1.6565    0.7488 H   0  0  0  0  0  0  0  0  0  0  0  0
   -2.9735    0.3055    1.6979 H   0  0  0  0  0  0  0  0  0  0  0  0
   -1.2715    2.0689    1.4054 H   0  0  0  0  0  0  0  0  0  0  0  0
   -2.5971    2.5000   -0.7794 H   0  0  0  0  0  0  0  0  0  0  0  0
    0.7322   -1.7609   -0.2229 H   0  0  0  0  0  0  0  0  0  0  0  0
    0.8768   -1.2464    1.4695 H   0  0  0  0  0  0  0  0  0  0  0  0
    2.9996   -1.8645   -0.0770 H   0  0  0  0  0  0  0  0  0  0  0  0
    3.1249   -0.7779    1.3317 H   0  0  0  0  0  0  0  0  0  0  0  0
  1  2  1  0
  2  3  1  0
  3  4  1  0
  4  5  1  0
  5  6  1  0
  6  7  1  0
  7  8  1  0
  8  9  1  0
  8 10  1  0
 10 11  1  0
 11 12  1  0
  5 13  1  0
 13 14  1  0
 14  2  1  0
 11  6  1  0
  1 15  1  0
  1 16  1  0
  1 17  1  0
  3 18  1  0
  3 19  1  0
  4 20  1  0
  4 21  1  0
  6 22  1  1
  7 23  1  0
  7 24  1  0
  9 25  1  0
  9 26  1  0
  9 27  1  0
 10 28  1  0
 10 29  1  0
 11 30  1  1
 12 31  1  0
 13 32  1  0
 13 33  1  0
 14 34  1  0
 14 35  1  0
M  END
$$$$

     RDKit          3D

 35 36  0  0  0  0  0  0  0  0999 V2000
    4.4148   -0.1246    0.4555 C   0  0  0  0  0  0  0  0  0  0  0  0
    2.9780   -0.4185    0.3694 N   0  0  0  0  0  0  0  0  0  0  0  0
    2.6253   -0.3926   -1.0387 C   0  0  0  0  0  0  0  0  0  0  0  0
    1.2383    0.2396   -1.2220 C   0  0  0  0  0  0  0  0  0  0  0  0
    0.4468   -0.2663   -0.1369 N   0  0  0  0  0  0  0  0  0  0  0  0
   -0.8949   -0.5358   -0.4269 C   0  0  2  0  0  0  0  0  0  0  0  0
   -1.7693    0.6028   -0.8275 C   0  0  0  0  0  0  0  0  0  0  0  0
   -3.0991    0.0213   -0.7583 N   0  0  0  0  0  0  0  0  0  0  0  0
   -4.0337    1.0362   -0.3400 C   0  0  0  0  0  0  0  0  0  0  0  0
   -3.0799   -1.0478    0.1940 C   0  0  0  0  0  0  0  0  0  0  0  0
   -1.6543   -1.1526    0.7138 C   0  0  2  0  0  0  0  0  0  0  0  0
   -1.5243   -0.3685    1.8512 O   0  0  0  0  0  0  0  0  0  0  0  0
    0.7952    0.2458    1.1372 C   0  0  0  0  0  0  0  0  0  0  0  0
    2.2762    0.6531    1.0616 C   0  0  0  0  0  0  0  0  0  0  0  0
    4.9432   -1.1097    0.5056 H   0  0  0  0  0  0  0  0  0  0  0  0
    4.7503    0.4179   -0.4462 H   0  0  0  0  0  0  0  0  0  0  0  0
    4.5824    0.4898    1.3676 H   0  0  0  0  0  0  0  0  0  0  0  0
    2.5266   -1.4414   -1.3787 H   0  0  0  0  0  0  0  0  0  0  0  0
    3.3500    0.1508   -1.6596 H   0  0  0  0  0  0  0  0  0  0  0  0
    0.8280   -0.1651   -2.1640 H   0  0  0  0  0  0  0  0  0  0  0  0
    1.3168    1.3413   -1.2684 H   0  0  0  0  0  0  0  0  0  0  0  0
   -0.9170   -1.2669   -1.2747 H   0  0  0  0  0  0  0  0  0  0  0  0
   -1.5342    0.9555   -1.8552 H   0  0  0  0  0  0  0  0  0  0  0  0
   -1.7484    1.4259   -0.0780 H   0  0  0  0  0  0  0  0  0  0  0  0
   -3.7567    1.3140    0.7150 H   0  0  0  0  0  0  0  0  0  0  0  0
   -3.9264    1.8994   -1.0082 H   0  0  0  0  0  0  0  0  0  0  0  0
   -5.0548    0.6344   -0.3436 H   0  0  0  0  0  0  0  0  0  0  0  0
   -3.3348   -2.0161   -0.2767 H   0  0  0  0  0  0  0  0  0  0  0  0
   -3.7813   -0.8667    1.0358 H   0  0  0  0  0  0  0  0  0  0  0  0
   -1.3620   -2.2162    0.8693 H   0  0  0  0  0  0  0  0  0  0  0  0
   -1.6736   -0.9346    2.6505 H   0  0  0  0  0  0  0  0  0  0  0  0
    0.2224    1.0949    1.5114 H   0  0  0  0  0  0  0  0  0  0  0  0
    0.7831   -0.5878    1.8709 H   0  0  0  0  0  0  0  0  0  0  0  0
    2.6894    0.8262    2.0715 H   0  0  0  0  0  0  0  0  0  0  0  0
    2.3781    1.5622    0.4577 H   0  0  0  0  0  0  0  0  0  0  0  0
  1  2  1  0
  2  3  1  0
  3  4  1  0
  4  5  1  0
  5  6  1  0
  6  7  1  0
  7  8  1  0
  8  9  1  0
  8 10  1  0
 10 11  1  0
 11 12  1  0
  5 13  1  0
 13 14  1  0
 14  2  1  0
 11  6  1  0
  1 15  1  0
  1 16  1  0
  1 17  1  0
  3 18  1  0
  3 19  1  0
  4 20  1  0
  4 21  1  0
  6 22  1  6
  7 23  1  0
  7 24  1  0
  9 25  1  0
  9 26  1  0
  9 27  1  0
 10 28  1  0
 10 29  1  0
 11 30  1  1
 12 31  1  0
 13 32  1  0
 13 33  1  0
 14 34  1  0
 14 35  1  0
M  END
$$$$

     RDKit          3D

 35 36  0  0  0  0  0  0  0  0999 V2000
   -4.4723    0.3500    0.0929 C   0  0  0  0  0  0  0  0  0  0  0  0
   -3.0726    0.2570    0.3902 N   0  0  0  0  0  0  0  0  0  0  0  0
   -2.4632   -0.9738   -0.0138 C   0  0  0  0  0  0  0  0  0  0  0  0
   -1.0661   -1.0424    0.5480 C   0  0  0  0  0  0  0  0  0  0  0  0
   -0.2706    0.1123    0.1754 N   0  0  0  0  0  0  0  0  0  0  0  0
    0.9146   -0.3575   -0.4739 C   0  0  2  0  0  0  0  0  0  0  0  0
    1.7960   -1.2026    0.4088 C   0  0  0  0  0  0  0  0  0  0  0  0
    3.1589   -0.9467    0.0168 N   0  0  0  0  0  0  0  0  0  0  0  0
    3.9034   -0.2316    1.0278 C   0  0  0  0  0  0  0  0  0  0  0  0
    3.0920   -0.1159   -1.1872 C   0  0  0  0  0  0  0  0  0  0  0  0
    1.8824    0.7556   -0.8265 C   0  0  2  0  0  0  0  0  0  0  0  0
    2.2445    1.4887    0.2789 O   0  0  0  0  0  0  0  0  0  0  0  0
   -1.0508    0.9048   -0.7442 C   0  0  0  0  0  0  0  0  0  0  0  0
   -2.3226    1.3953   -0.0390 C   0  0  0  0  0  0  0  0  0  0  0  0
   -4.6874    0.4393   -1.0001 H   0  0  0  0  0  0  0  0  0  0  0  0
   -5.0325   -0.4627    0.5680 H   0  0  0  0  0  0  0  0  0  0  0  0
   -4.8228    1.3246    0.5425 H   0  0  0  0  0  0  0  0  0  0  0  0
   -3.0423   -1.7968    0.4965 H   0  0  0  0  0  0  0  0  0  0  0  0
   -2.5230   -1.1890   -1.0907 H   0  0  0  0  0  0  0  0  0  0  0  0
   -0.6131   -1.9972    0.1808 H   0  0  0  0  0  0  0  0  0  0  0  0
   -1.1662   -1.1212    1.6509 H   0  0  0  0  0  0  0  0  0  0  0  0
    0.6829   -0.9551   -1.3732 H   0  0  0  0  0  0  0  0  0  0  0  0
    1.6206   -2.2901    0.2771 H   0  0  0  0  0  0  0  0  0  0  0  0
    1.6375   -0.9959    1.4877 H   0  0  0  0  0  0  0  0  0  0  0  0
    4.4262    0.6567    0.5857 H   0  0  0  0  0  0  0  0  0  0  0  0
    3.2737    0.0578    1.8914 H   0  0  0  0  0  0  0  0  0  0  0  0
    4.7150   -0.8821    1.4161 H   0  0  0  0  0  0  0  0  0  0  0  0
    3.9958    0.4718   -1.3489 H   0  0  0  0  0  0  0  0  0  0  0  0
    2.7856   -0.7345   -2.0373 H   0  0  0  0  0  0  0  0  0  0  0  0
    1.5456    1.3528   -1.6858 H   0  0  0  0  0  0  0  0  0  0  0  0
    1.5647    1.5431    0.9762 H   0  0  0  0  0  0  0  0  0  0  0  0
   -0.5251    1.8220   -1.0712 H   0  0  0  0  0  0  0  0  0  0  0  0
   -1.3074    0.3474   -1.6668 H   0  0  0  0  0  0  0  0  0  0  0  0
   -2.8526    2.0844   -0.6988 H   0  0  0  0  0  0  0  0  0  0  0  0
   -1.9492    1.9317    0.8754 H   0  0  0  0  0  0  0  0  0  0  0  0
  1  2  1  0
  2  3  1  0
  3  4  1  0
  4  5  1  0
  5  6  1  0
  6  7  1  0
  7  8  1  0
  8  9  1  0
  8 10  1  0
 10 11  1  0
 11 12  1  0
  5 13  1  0
 13 14  1  0
 14  2  1  0
 11  6  1  0
  1 15  1  0
  1 16  1  0
  1 17  1  0
  3 18  1  0
  3 19  1  0
  4 20  1  0
  4 21  1  0
  6 22  1  6
  7 23  1  0
  7 24  1  0
  9 25  1  0
  9 26  1  0
  9 27  1  0
 10 28  1  0
 10 29  1  0
 11 30  1  6
 12 31  1  0
 13 32  1  0
 13 33  1  0
 14 34  1  0
 14 35  1  0
M  END
$$$$
