
     RDKit          3D

 28 28  0  0  0  0  0  0  0  0999 V2000
   -3.1619   -1.1526   -0.1996 C   0  0  0  0  0  0  0  0  0  0  0  0
   -2.1712   -0.8599    0.8399 N   0  0  0  0  0  0  0  0  0  0  0  0
   -0.8385   -1.0321    0.3443 C   0  0  0  0  0  0  0  0  0  0  0  0
   -0.3705    0.2873   -0.2043 C   0  0  2  0  0  0  0  0  0  0  0  0
    0.5157    0.9914    0.6348 N   0  0  0  0  0  0  0  0  0  0  0  0
    1.6443    0.4467    0.9681 O   0  0  0  0  0  0  0  0  0  0  0  0
    2.5217    0.1327   -0.0395 C   0  0  0  0  0  0  0  0  0  0  0  0
    3.7324   -0.4743    0.5795 C   0  0  0  0  0  0  0  0  0  0  0  0
    4.7809   -0.8784   -0.2900 N   0  0  0  0  0  0  0  0  0  0  0  0
    3.8436   -0.6315    1.8104 O   0  0  0  0  0  0  0  0  0  0  0  0
   -1.6763    1.1017   -0.2067 C   0  0  2  0  0  0  0  0  0  0  0  0
   -1.3492    2.4330   -0.1208 O   0  0  0  0  0  0  0  0  0  0  0  0
   -2.2514    0.5651    1.1115 C   0  0  0  0  0  0  0  0  0  0  0  0
   -3.9636   -0.3782   -0.2080 H   0  0  0  0  0  0  0  0  0  0  0  0
   -2.6821   -1.1753   -1.2027 H   0  0  0  0  0  0  0  0  0  0  0  0
   -3.6560   -2.1239   -0.0376 H   0  0  0  0  0  0  0  0  0  0  0  0
   -0.1776   -1.3761    1.1722 H   0  0  0  0  0  0  0  0  0  0  0  0
   -0.8829   -1.7768   -0.4807 H   0  0  0  0  0  0  0  0  0  0  0  0
   -0.0235    0.1610   -1.2557 H   0  0  0  0  0  0  0  0  0  0  0  0
    0.2645    1.9125    0.9602 H   0  0  0  0  0  0  0  0  0  0  0  0
    2.7602    1.0331   -0.6393 H   0  0  0  0  0  0  0  0  0  0  0  0
    2.0547   -0.6686   -0.6581 H   0  0  0  0  0  0  0  0  0  0  0  0
    4.9867   -0.3124   -1.1258 H   0  0  0  0  0  0  0  0  0  0  0  0
    5.3411   -1.7361   -0.0930 H   0  0  0  0  0  0  0  0  0  0  0  0
   -2.3086    0.8467   -1.0579 H   0  0  0  0  0  0  0  0  0  0  0  0
   -2.1792    2.9556   -0.2634 H   0  0  0  0  0  0  0  0  0  0  0  0
   -1.4993    0.7845    1.8844 H   0  0  0  0  0  0  0  0  0  0  0  0
   -3.2540    0.9248    1.3090 H   0  0  0  0  0  0  0  0  0  0  0  0
  1  2  1  0
  2  3  1  0
  3  4  1  0
  4  5  1  0
  5  6  1  0
  6  7  1  0
  7  8  1  0
  8  9  1  0
  8 10  2  0
  4 11  1  0
 11 12  1  0
 11 13  1  0
 13  2  1  0
  1 14  1  0
  1 15  1  0
  1 16  1  0
  3 17  1  0
  3 18  1  0
  4 19  1  6
  5 20  1  0
  7 21  1  0
  7 22  1  0
  9 23  1  0
  9 24  1  0
 11 25  1  6
 12 26  1  0
 13 27  1  0
 13 28  1  0
M  END
$$$$

     RDKit          3D

 28 28  0  0  0  0  0  0  0  0999 V2000
    2.9391   -1.5217   -0.0954 C   0  0  0  0  0  0  0  0  0  0  0  0
    2.2822   -0.5144    0.7086 N   0  0  0  0  0  0  0  0  0  0  0  0
    0.8716   -0.6186    0.4966 C   0  0  0  0  0  0  0  0  0  0  0  0
    0.4081    0.7118   -0.0129 C   0  0  2  0  0  0  0  0  0  0  0  0
   -0.7232    0.6239   -0.9010 N   0  0  0  0  0  0  0  0  0  0  0  0
   -1.7327    0.0454   -0.1934 O   0  0  0  0  0  0  0  0  0  0  0  0
   -2.9134    0.5803   -0.6599 C   0  0  0  0  0  0  0  0  0  0  0  0
   -4.0576    0.0116    0.0492 C   0  0  0  0  0  0  0  0  0  0  0  0
   -3.8417   -0.9562    1.0637 N   0  0  0  0  0  0  0  0  0  0  0  0
   -5.2388    0.3471   -0.2042 O   0  0  0  0  0  0  0  0  0  0  0  0
    1.6478    1.2332   -0.7109 C   0  0  2  0  0  0  0  0  0  0  0  0
    1.8589    0.5960   -1.9358 O   0  0  0  0  0  0  0  0  0  0  0  0
    2.7066    0.7968    0.2816 C   0  0  0  0  0  0  0  0  0  0  0  0
    2.9770   -2.4853    0.4326 H   0  0  0  0  0  0  0  0  0  0  0  0
    2.4172   -1.6603   -1.0650 H   0  0  0  0  0  0  0  0  0  0  0  0
    3.9619   -1.1346   -0.3545 H   0  0  0  0  0  0  0  0  0  0  0  0
    0.5890   -1.4293   -0.2077 H   0  0  0  0  0  0  0  0  0  0  0  0
    0.3821   -0.8204    1.4871 H   0  0  0  0  0  0  0  0  0  0  0  0
    0.2285    1.3680    0.8537 H   0  0  0  0  0  0  0  0  0  0  0  0
   -0.4640    0.0042   -1.6942 H   0  0  0  0  0  0  0  0  0  0  0  0
   -2.8765    1.6824   -0.5419 H   0  0  0  0  0  0  0  0  0  0  0  0
   -2.9636    0.3582   -1.7573 H   0  0  0  0  0  0  0  0  0  0  0  0
   -3.8652   -1.9885    0.8394 H   0  0  0  0  0  0  0  0  0  0  0  0
   -3.6549   -0.7092    2.0503 H   0  0  0  0  0  0  0  0  0  0  0  0
    1.5921    2.3257   -0.8097 H   0  0  0  0  0  0  0  0  0  0  0  0
    1.1658    0.8490   -2.5852 H   0  0  0  0  0  0  0  0  0  0  0  0
    3.7128    0.8279   -0.1393 H   0  0  0  0  0  0  0  0  0  0  0  0
    2.5908    1.4770    1.1750 H   0  0  0  0  0  0  0  0  0  0  0  0
  1  2  1  0
  2  3  1  0
  3  4  1  0
  4  5  1  0
  5  6  1  0
  6  7  1  0
  7  8  1  0
  8  9  1  0
  8 10  2  0
  4 11  1  0
 11 12  1  0
 11 13  1  0
 13  2  1  0
  1 14  1  0
  1 15  1  0
  1 16  1  0
  3 17  1  0
  3 18  1  0
  4 19  1  1
  5 20  1  0
  7 21  1  0
  7 22  1  0
  9 23  1  0
  9 24  1  0
 11 25  1  6
 12 26  1  0
 13 27  1  0
 13 28  1  0
M  END
$$$$

     RDKit          3D

 28 28  0  0  0  0  0  0  0  0999 V2000
   -3.6015    0.8222    0.7339 C   0  0  0  0  0  0  0  0  0  0  0  0
   -2.2291    1.0478    0.3091 N   0  0  0  0  0  0  0  0  0  0  0  0
   -1.3326    0.5753    1.3252 C   0  0  0  0  0  0  0  0  0  0  0  0
   -0.3327   -0.3055    0.5665 C   0  0  2  0  0  0  0  0  0  0  0  0
    0.4344    0.5551   -0.2711 N   0  0  0  0  0  0  0  0  0  0  0  0
    1.3621   -0.0492   -1.0107 O   0  0  0  0  0  0  0  0  0  0  0  0
    2.6076    0.1951   -0.4345 C   0  0  0  0  0  0  0  0  0  0  0  0
    3.6786   -0.4451   -1.2030 C   0  0  0  0  0  0  0  0  0  0  0  0
    5.0285   -0.3018   -0.7592 N   0  0  0  0  0  0  0  0  0  0  0  0
    3.3922   -1.1010   -2.2270 O   0  0  0  0  0  0  0  0  0  0  0  0
   -1.3640   -1.0056   -0.3298 C   0  0  2  0  0  0  0  0  0  0  0  0
   -0.7708   -1.7879   -1.2829 O   0  0  0  0  0  0  0  0  0  0  0  0
   -2.0163    0.2420   -0.8784 C   0  0  0  0  0  0  0  0  0  0  0  0
   -4.1936    0.2985   -0.0343 H   0  0  0  0  0  0  0  0  0  0  0  0
   -3.6667    0.2342    1.6582 H   0  0  0  0  0  0  0  0  0  0  0  0
   -4.0745    1.8219    0.8848 H   0  0  0  0  0  0  0  0  0  0  0  0
   -0.8001    1.3770    1.8656 H   0  0  0  0  0  0  0  0  0  0  0  0
   -1.8556   -0.1272    2.0345 H   0  0  0  0  0  0  0  0  0  0  0  0
    0.2084   -0.9825    1.2003 H   0  0  0  0  0  0  0  0  0  0  0  0
    0.8714    1.3450    0.2497 H   0  0  0  0  0  0  0  0  0  0  0  0
    2.5513   -0.1225    0.6195 H   0  0  0  0  0  0  0  0  0  0  0  0
    2.7902    1.3033   -0.4118 H   0  0  0  0  0  0  0  0  0  0  0  0
    5.2557    0.0784    0.1641 H   0  0  0  0  0  0  0  0  0  0  0  0
    5.8298   -0.5843   -1.3717 H   0  0  0  0  0  0  0  0  0  0  0  0
   -2.0760   -1.5103    0.3257 H   0  0  0  0  0  0  0  0  0  0  0  0
   -1.4552   -2.4104   -1.6366 H   0  0  0  0  0  0  0  0  0  0  0  0
   -1.2918    0.8001   -1.5254 H   0  0  0  0  0  0  0  0  0  0  0  0
   -2.9500    0.0376   -1.4301 H   0  0  0  0  0  0  0  0  0  0  0  0
  1  2  1  0
  2  3  1  0
  3  4  1  0
  4  5  1  0
  5  6  1  0
  6  7  1  0
  7  8  1  0
  8  9  1  0
  8 10  2  0
  4 11  1  0
 11 12  1  0
 11 13  1  0
 13  2  1  0
  1 14  1  0
  1 15  1  0
  1 16  1  0
  3 17  1  0
  3 18  1  0
  4 19  1  1
  5 20  1  0
  7 21  1  0
  7 22  1  0
  9 23  1  0
  9 24  1  0
 11 25  1  1
 12 26  1  0
 13 27  1  0
 13 28  1  0
M  END
$$$$

     RDKit          3D

 28 28  0  0  0  0  0  0  0  0999 V2000
   -3.0588    1.3149    0.7076 C   0  0  0  0  0  0  0  0  0  0  0  0
   -2.5910   -0.0320    0.6146 N   0  0  0  0  0  0  0  0  0  0  0  0
   -1.2954   -0.2653    1.1558 C   0  0  0  0  0  0  0  0  0  0  0  0
   -0.4338   -0.8842    0.0311 C   0  0  2  0  0  0  0  0  0  0  0  0
    0.8027   -0.3798    0.1531 N   0  0  0  0  0  0  0  0  0  0  0  0
    1.8395   -0.2795   -0.6329 O   0  0  0  0  0  0  0  0  0  0  0  0
    2.9289   -1.0028    0.0253 C   0  0  0  0  0  0  0  0  0  0  0  0
    3.8353    0.0764    0.4395 C   0  0  0  0  0  0  0  0  0  0  0  0
    3.8855    1.3672   -0.0612 N   0  0  0  0  0  0  0  0  0  0  0  0
    4.6942   -0.1944    1.3548 O   0  0  0  0  0  0  0  0  0  0  0  0
   -1.2163   -0.5058   -1.2059 C   0  0  2  0  0  0  0  0  0  0  0  0
   -0.8363    0.7482   -1.6720 O   0  0  0  0  0  0  0  0  0  0  0  0
   -2.6302   -0.5790   -0.7198 C   0  0  0  0  0  0  0  0  0  0  0  0
   -3.3895    1.7361   -0.2818 H   0  0  0  0  0  0  0  0  0  0  0  0
   -2.3504    2.0072    1.2121 H   0  0  0  0  0  0  0  0  0  0  0  0
   -3.9771    1.3183    1.3610 H   0  0  0  0  0  0  0  0  0  0  0  0
   -0.8196    0.6651    1.5529 H   0  0  0  0  0  0  0  0  0  0  0  0
   -1.3544   -1.0167    1.9474 H   0  0  0  0  0  0  0  0  0  0  0  0
   -0.4305   -2.0204    0.1716 H   0  0  0  0  0  0  0  0  0  0  0  0
    1.1583   -0.4520    1.1541 H   0  0  0  0  0  0  0  0  0  0  0  0
    2.5629   -1.6956    0.6929 H   0  0  0  0  0  0  0  0  0  0  0  0
    3.4118   -1.4988   -0.8995 H   0  0  0  0  0  0  0  0  0  0  0  0
    3.1525    2.0735    0.2466 H   0  0  0  0  0  0  0  0  0  0  0  0
    4.5873    1.6930   -0.7767 H   0  0  0  0  0  0  0  0  0  0  0  0
   -1.0718   -1.2625   -1.9914 H   0  0  0  0  0  0  0  0  0  0  0  0
   -1.2049    0.8020   -2.5963 H   0  0  0  0  0  0  0  0  0  0  0  0
   -2.8587   -1.6672   -0.5920 H   0  0  0  0  0  0  0  0  0  0  0  0
   -3.3401   -0.0659   -1.3907 H   0  0  0  0  0  0  0  0  0  0  0  0
  1  2  1  0
  2  3  1  0
  3  4  1  0
  4  5  1  0
  5  6  1  0
  6  7  1  0
  7  8  1  0
  8  9  1  0
  8 10  2  0
  4 11  1  0
 11 12  1  0
 11 13  1  0
 13  2  1  0
  1 14  1  0
  1 15  1  0
  1 16  1  0
  3 17  1  0
  3 18  1  0
  4 19  1  1
  5 20  1  0
  7 21  1  0
  7 22  1  0
  9 23  1  0
  9 24  1  0
 11 25  1  6
 12 26  1  0
 13 27  1  0
 13 28  1  0
M  END
$$$$

     RDKit          3D

 28 28  0  0  0  0  0  0  0  0999 V2000
   -3.2284    1.1630   -0.6478 C   0  0  0  0  0  0  0  0  0  0  0  0
   -2.0007    0.3957   -0.7223 N   0  0  0  0  0  0  0  0  0  0  0  0
   -1.2258    0.6835    0.4708 C   0  0  0  0  0  0  0  0  0  0  0  0
   -0.3607   -0.5574    0.5575 C   0  0  2  0  0  0  0  0  0  0  0  0
    0.4949   -0.5725   -0.5952 N   0  0  0  0  0  0  0  0  0  0  0  0
    1.2568    0.5477   -0.5805 O   0  0  0  0  0  0  0  0  0  0  0  0
    2.4907    0.1918   -0.0601 C   0  0  0  0  0  0  0  0  0  0  0  0
    3.4185    1.3569    0.0034 C   0  0  0  0  0  0  0  0  0  0  0  0
    4.7326    1.2439    0.4967 N   0  0  0  0  0  0  0  0  0  0  0  0
    2.9780    2.4615   -0.4061 O   0  0  0  0  0  0  0  0  0  0  0  0
   -1.4341   -1.6363    0.3747 C   0  0  2  0  0  0  0  0  0  0  0  0
   -0.8876   -2.8530    0.0391 O   0  0  0  0  0  0  0  0  0  0  0  0
   -2.2590   -1.0203   -0.7323 C   0  0  0  0  0  0  0  0  0  0  0  0
   -3.5638    1.3740   -1.6662 H   0  0  0  0  0  0  0  0  0  0  0  0
   -3.0054    2.0877   -0.0950 H   0  0  0  0  0  0  0  0  0  0  0  0
   -4.0003    0.6149   -0.0702 H   0  0  0  0  0  0  0  0  0  0  0  0
   -0.6151    1.5939    0.3396 H   0  0  0  0  0  0  0  0  0  0  0  0
   -1.8896    0.7291    1.3590 H   0  0  0  0  0  0  0  0  0  0  0  0
    0.1651   -0.6542    1.5111 H   0  0  0  0  0  0  0  0  0  0  0  0
    1.0723   -1.4397   -0.6449 H   0  0  0  0  0  0  0  0  0  0  0  0
    2.3212   -0.2404    0.9340 H   0  0  0  0  0  0  0  0  0  0  0  0
    2.9742   -0.6134   -0.6858 H   0  0  0  0  0  0  0  0  0  0  0  0
    5.2363    2.0814    0.8320 H   0  0  0  0  0  0  0  0  0  0  0  0
    5.1880    0.3222    0.5211 H   0  0  0  0  0  0  0  0  0  0  0  0
   -2.0494   -1.7149    1.2874 H   0  0  0  0  0  0  0  0  0  0  0  0
   -0.5722   -2.9098   -0.8796 H   0  0  0  0  0  0  0  0  0  0  0  0
   -3.3421   -1.2122   -0.5847 H   0  0  0  0  0  0  0  0  0  0  0  0
   -1.8944   -1.4233   -1.6999 H   0  0  0  0  0  0  0  0  0  0  0  0
  1  2  1  0
  2  3  1  0
  3  4  1  0
  4  5  1  0
  5  6  1  0
  6  7  1  0
  7  8  1  0
  8  9  1  0
  8 10  2  0
  4 11  1  0
 11 12  1  0
 11 13  1  0
 13  2  1  0
  1 14  1  0
  1 15  1  0
  1 16  1  0
  3 17  1  0
  3 18  1  0
  4 19  1  1
  5 20  1  0
  7 21  1  0
  7 22  1  0
  9 23  1  0
  9 24  1  0
 11 25  1  1
 12 26  1  0
 13 27  1  0
 13 28  1  0
M  END
$$$$

     RDKit          3D

 28 28  0  0  0  0  0  0  0  0999 V2000
   -2.3836    0.7252   -1.6748 C   0  0  0  0  0  0  0  0  0  0  0  0
   -2.1861   -0.5103   -0.9673 N   0  0  0  0  0  0  0  0  0  0  0  0
   -0.8041   -0.8004   -0.7137 C   0  0  0  0  0  0  0  0  0  0  0  0
   -0.3213    0.2433    0.2482 C   0  0  2  0  0  0  0  0  0  0  0  0
    0.5138   -0.2359    1.2443 N   0  0  0  0  0  0  0  0  0  0  0  0
    1.4320   -1.1352    1.1658 O   0  0  0  0  0  0  0  0  0  0  0  0
    2.2138   -1.2446    0.0487 C   0  0  0  0  0  0  0  0  0  0  0  0
    3.2940   -0.2229   -0.0501 C   0  0  0  0  0  0  0  0  0  0  0  0
    3.7587    0.7134    0.8405 N   0  0  0  0  0  0  0  0  0  0  0  0
    3.9282   -0.3109   -1.1412 O   0  0  0  0  0  0  0  0  0  0  0  0
   -1.6763    0.6656    0.9126 C   0  0  2  0  0  0  0  0  0  0  0  0
   -1.5573    0.4380    2.2916 O   0  0  0  0  0  0  0  0  0  0  0  0
   -2.6822   -0.3140    0.4023 C   0  0  0  0  0  0  0  0  0  0  0  0
   -2.3196    0.6162   -2.7785 H   0  0  0  0  0  0  0  0  0  0  0  0
   -3.4049    1.0984   -1.4334 H   0  0  0  0  0  0  0  0  0  0  0  0
   -1.6869    1.5292   -1.3811 H   0  0  0  0  0  0  0  0  0  0  0  0
   -0.2332   -0.7976   -1.6747 H   0  0  0  0  0  0  0  0  0  0  0  0
   -0.7352   -1.7775   -0.1814 H   0  0  0  0  0  0  0  0  0  0  0  0
    0.0754    1.1145   -0.2914 H   0  0  0  0  0  0  0  0  0  0  0  0
    1.0948    0.7273    1.6164 H   0  0  0  0  0  0  0  0  0  0  0  0
    2.8556   -2.2796    0.2834 H   0  0  0  0  0  0  0  0  0  0  0  0
    1.7556   -1.4560   -0.8816 H   0  0  0  0  0  0  0  0  0  0  0  0
    3.2837    1.5956    1.0445 H   0  0  0  0  0  0  0  0  0  0  0  0
    4.6738    0.5878    1.3854 H   0  0  0  0  0  0  0  0  0  0  0  0
   -1.9140    1.6877    0.6535 H   0  0  0  0  0  0  0  0  0  0  0  0
   -0.6660    0.6031    2.6384 H   0  0  0  0  0  0  0  0  0  0  0  0
   -2.5900   -1.3221    0.8792 H   0  0  0  0  0  0  0  0  0  0  0  0
   -3.7185    0.0618    0.3982 H   0  0  0  0  0  0  0  0  0  0  0  0
  1  2  1  0
  2  3  1  0
  3  4  1  0
  4  5  1  0
  5  6  1  0
  6  7  1  0
  7  8  1  0
  8  9  1  0
  8 10  2  0
  4 11  1  0
 11 12  1  0
 11 13  1  0
 13  2  1  0
  1 14  1  0
  1 15  1  0
  1 16  1  0
  3 17  1  0
  3 18  1  0
  4 19  1  6
  5 20  1  0
  7 21  1  0
  7 22  1  0
  9 23  1  0
  9 24  1  0
 11 25  1  1
 12 26  1  0
 13 27  1  0
 13 28  1  0
M  END
$$$$

     RDKit          3D

 28 28  0  0  0  0  0  0  0  0999 V2000
   -2.8729    0.3503    1.6874 C   0  0  0  0  0  0  0  0  0  0  0  0
   -2.3814    0.8291    0.4063 N   0  0  0  0  0  0  0  0  0  0  0  0
   -0.9574    0.7928    0.4468 C   0  0  0  0  0  0  0  0  0  0  0  0
   -0.6841   -0.6003   -0.1145 C   0  0  2  0  0  0  0  0  0  0  0  0
    0.6156   -0.9080   -0.3549 N   0  0  0  0  0  0  0  0  0  0  0  0
    1.5262   -0.9282    0.5536 O   0  0  0  0  0  0  0  0  0  0  0  0
    2.3886    0.1682    0.3619 C   0  0  0  0  0  0  0  0  0  0  0  0
    3.6540   -0.4963   -0.1216 C   0  0  0  0  0  0  0  0  0  0  0  0
    4.6479    0.3004   -0.6970 N   0  0  0  0  0  0  0  0  0  0  0  0
    3.7706   -1.7226   -0.0472 O   0  0  0  0  0  0  0  0  0  0  0  0
   -1.5868   -0.5631   -1.3359 C   0  0  2  0  0  0  0  0  0  0  0  0
   -1.1248    0.3710   -2.2692 O   0  0  0  0  0  0  0  0  0  0  0  0
   -2.8302    0.0313   -0.7128 C   0  0  0  0  0  0  0  0  0  0  0  0
   -2.1216   -0.3451    2.1546 H   0  0  0  0  0  0  0  0  0  0  0  0
   -3.8066   -0.1996    1.6112 H   0  0  0  0  0  0  0  0  0  0  0  0
   -2.9206    1.2450    2.3406 H   0  0  0  0  0  0  0  0  0  0  0  0
   -0.5157    1.5361   -0.2645 H   0  0  0  0  0  0  0  0  0  0  0  0
   -0.4899    0.8604    1.4396 H   0  0  0  0  0  0  0  0  0  0  0  0
   -1.1470   -1.3319    0.5829 H   0  0  0  0  0  0  0  0  0  0  0  0
    0.9743   -0.8915   -1.3463 H   0  0  0  0  0  0  0  0  0  0  0  0
    2.6103    0.5862    1.3913 H   0  0  0  0  0  0  0  0  0  0  0  0
    2.0123    0.9116   -0.2805 H   0  0  0  0  0  0  0  0  0  0  0  0
    4.5568    0.4437   -1.7439 H   0  0  0  0  0  0  0  0  0  0  0  0
    5.4580    0.6654   -0.1992 H   0  0  0  0  0  0  0  0  0  0  0  0
   -1.7525   -1.5447   -1.7912 H   0  0  0  0  0  0  0  0  0  0  0  0
   -0.1539    0.5107   -2.1743 H   0  0  0  0  0  0  0  0  0  0  0  0
   -3.5238   -0.7797   -0.3836 H   0  0  0  0  0  0  0  0  0  0  0  0
   -3.3456    0.7089   -1.4086 H   0  0  0  0  0  0  0  0  0  0  0  0
  1  2  1  0
  2  3  1  0
  3  4  1  0
  4  5  1  0
  5  6  1  0
  6  7  1  0
  7  8  1  0
  8  9  1  0
  8 10  2  0
  4 11  1  0
 11 12  1  0
 11 13  1  0
 13  2  1  0
  1 14  1  0
  1 15  1  0
  1 16  1  0
  3 17  1  0
  3 18  1  0
  4 19  1  1
  5 20  1  0
  7 21  1  0
  7 22  1  0
  9 23  1  0
  9 24  1  0
 11 25  1  6
 12 26  1  0
 13 27  1  0
 13 28  1  0
M  END
$$$$

     RDKit          3D

 28 28  0  0  0  0  0  0  0  0999 V2000
   -2.7617   -1.7026   -0.3892 C   0  0  0  0  0  0  0  0  0  0  0  0
   -2.2630   -0.5274   -1.0799 N   0  0  0  0  0  0  0  0  0  0  0  0
   -0.8375   -0.4406   -0.8561 C   0  0  0  0  0  0  0  0  0  0  0  0
   -0.5357    0.9951   -0.5639 C   0  0  2  0  0  0  0  0  0  0  0  0
    0.6082    1.1690    0.3053 N   0  0  0  0  0  0  0  0  0  0  0  0
    1.7313    0.6621   -0.2010 O   0  0  0  0  0  0  0  0  0  0  0  0
    2.4688    0.0736    0.8183 C   0  0  0  0  0  0  0  0  0  0  0  0
    3.7366   -0.5098    0.3059 C   0  0  0  0  0  0  0  0  0  0  0  0
    4.6724   -1.1671    1.1259 N   0  0  0  0  0  0  0  0  0  0  0  0
    3.9761   -0.4063   -0.9209 O   0  0  0  0  0  0  0  0  0  0  0  0
   -1.7897    1.4466    0.1519 C   0  0  2  0  0  0  0  0  0  0  0  0
   -1.7093    0.9730    1.4647 O   0  0  0  0  0  0  0  0  0  0  0  0
   -2.8583    0.6784   -0.5760 C   0  0  0  0  0  0  0  0  0  0  0  0
   -2.2135   -1.7619    0.5734 H   0  0  0  0  0  0  0  0  0  0  0  0
   -2.6299   -2.6060   -1.0216 H   0  0  0  0  0  0  0  0  0  0  0  0
   -3.8502   -1.5500   -0.2418 H   0  0  0  0  0  0  0  0  0  0  0  0
   -0.5082   -1.1119   -0.0338 H   0  0  0  0  0  0  0  0  0  0  0  0
   -0.3431   -0.7224   -1.8270 H   0  0  0  0  0  0  0  0  0  0  0  0
   -0.4052    1.5229   -1.5351 H   0  0  0  0  0  0  0  0  0  0  0  0
    0.7259    2.1897    0.4674 H   0  0  0  0  0  0  0  0  0  0  0  0
    1.8239   -0.7396    1.2549 H   0  0  0  0  0  0  0  0  0  0  0  0
    2.7449    0.7917    1.6127 H   0  0  0  0  0  0  0  0  0  0  0  0
    5.2766   -1.9600    0.8175 H   0  0  0  0  0  0  0  0  0  0  0  0
    4.7799   -0.8500    2.1127 H   0  0  0  0  0  0  0  0  0  0  0  0
   -1.9364    2.5384    0.1132 H   0  0  0  0  0  0  0  0  0  0  0  0
   -0.9186    1.3591    1.9360 H   0  0  0  0  0  0  0  0  0  0  0  0
   -3.6311    0.3888    0.1789 H   0  0  0  0  0  0  0  0  0  0  0  0
   -3.3533    1.2671   -1.3774 H   0  0  0  0  0  0  0  0  0  0  0  0
  1  2  1  0
  2  3  1  0
  3  4  1  0
  4  5  1  0
  5  6  1  0
  6  7  1  0
  7  8  1  0
  8  9  1  0
  8 10  2  0
  4 11  1  0
 11 12  1  0
 11 13  1  0
 13  2  1  0
  1 14  1  0
  1 15  1  0
  1 16  1  0
  3 17  1  0
  3 18  1  0
  4 19  1  6
  5 20  1  0
  7 21  1  0
  7 22  1  0
  9 23  1  0
  9 24  1  0
 11 25  1  1
 12 26  1  0
 13 27  1  0
 13 28  1  0
M  END
$$$$
