
     RDKit          3D

 22 23  0  0  0  0  0  0  0  0999 V2000
   -2.3402    1.8521   -0.3720 O   0  0  0  0  0  0  0  0  0  0  0  0
   -2.1775    0.4663   -0.5731 C   0  0  2  0  0  0  0  0  0  0  0  0
   -2.4882   -0.2414    0.7304 C   0  0  0  0  0  0  0  0  0  0  0  0
   -1.5001   -1.2207    0.8328 O   0  0  0  0  0  0  0  0  0  0  0  0
   -0.3513   -0.4823    0.5547 C   0  0  1  0  0  0  0  0  0  0  0  0
    0.8756   -1.3643    0.4821 C   0  0  0  0  0  0  0  0  0  0  0  0
    2.0911   -0.5981    0.1898 C   0  0  0  0  0  0  0  0  0  0  0  0
    3.3127   -1.1322    0.0712 N   0  0  0  0  0  0  0  0  0  0  0  0
    4.1627   -0.1398   -0.1945 N   0  0  0  0  0  0  0  0  0  0  0  0
    3.5045    1.0143   -0.2469 N   0  0  0  0  0  0  0  0  0  0  0  0
    2.2535    0.7341   -0.0144 N   0  0  0  0  0  0  0  0  0  0  0  0
   -0.6928    0.1380   -0.7718 C   0  0  0  0  0  0  0  0  0  0  0  0
   -2.5301    2.3317   -1.1989 H   0  0  0  0  0  0  0  0  0  0  0  0
   -2.7873    0.1283   -1.4113 H   0  0  0  0  0  0  0  0  0  0  0  0
   -2.3830    0.4779    1.5775 H   0  0  0  0  0  0  0  0  0  0  0  0
   -3.5010   -0.6886    0.6761 H   0  0  0  0  0  0  0  0  0  0  0  0
   -0.2600    0.2852    1.3366 H   0  0  0  0  0  0  0  0  0  0  0  0
    1.0008   -1.7949    1.5141 H   0  0  0  0  0  0  0  0  0  0  0  0
    0.6976   -2.2195   -0.1878 H   0  0  0  0  0  0  0  0  0  0  0  0
    3.8934    1.9617   -0.4348 H   0  0  0  0  0  0  0  0  0  0  0  0
   -0.5977   -0.5956   -1.5898 H   0  0  0  0  0  0  0  0  0  0  0  0
   -0.1826    1.0877   -0.9699 H   0  0  0  0  0  0  0  0  0  0  0  0
  1  2  1  0
  2  3  1  0
  3  4  1  0
  4  5  1  0
  5  6  1  0
  6  7  1  0
  7  8  1  0
  8  9  2  0
  9 10  1  0
 10 11  1  0
  5 12  1  0
 12  2  1  0
 11  7  2  0
  1 13  1  0
  2 14  1  6
  3 15  1  0
  3 16  1  0
  5 17  1  1
  6 18  1  0
  6 19  1  0
 10 20  1  0
 12 21  1  0
 12 22  1  0
M  END
$$$$

     RDKit          3D

 22 23  0  0  0  0  0  0  0  0999 V2000
   -2.9718   -0.9514    0.8854 O   0  0  0  0  0  0  0  0  0  0  0  0
   -2.0006    0.0292    0.9423 C   0  0  2  0  0  0  0  0  0  0  0  0
   -2.1463    0.8602   -0.3372 C   0  0  0  0  0  0  0  0  0  0  0  0
   -1.6820   -0.0519   -1.2806 O   0  0  0  0  0  0  0  0  0  0  0  0
   -0.4659   -0.5120   -0.7580 C   0  0  1  0  0  0  0  0  0  0  0  0
    0.5971    0.4329   -1.2550 C   0  0  0  0  0  0  0  0  0  0  0  0
    1.9488    0.0826   -0.7881 C   0  0  0  0  0  0  0  0  0  0  0  0
    2.8311   -0.7256   -1.4022 N   0  0  0  0  0  0  0  0  0  0  0  0
    3.9277   -0.7853   -0.6676 N   0  0  0  0  0  0  0  0  0  0  0  0
    3.7765   -0.0341    0.4088 N   0  0  0  0  0  0  0  0  0  0  0  0
    2.5534    0.5034    0.3360 N   0  0  0  0  0  0  0  0  0  0  0  0
   -0.5973   -0.5453    0.7229 C   0  0  0  0  0  0  0  0  0  0  0  0
   -3.7102   -0.7012    0.2477 H   0  0  0  0  0  0  0  0  0  0  0  0
   -2.0676    0.6419    1.8395 H   0  0  0  0  0  0  0  0  0  0  0  0
   -1.5034    1.7335   -0.2192 H   0  0  0  0  0  0  0  0  0  0  0  0
   -3.1966    1.1135   -0.5159 H   0  0  0  0  0  0  0  0  0  0  0  0
   -0.2059   -1.5221   -1.1538 H   0  0  0  0  0  0  0  0  0  0  0  0
    0.3623    1.4959   -1.0094 H   0  0  0  0  0  0  0  0  0  0  0  0
    0.5672    0.3763   -2.3759 H   0  0  0  0  0  0  0  0  0  0  0  0
    4.5053    0.0827    1.1451 H   0  0  0  0  0  0  0  0  0  0  0  0
   -0.6498   -1.5927    1.1374 H   0  0  0  0  0  0  0  0  0  0  0  0
    0.1281    0.0694    1.2735 H   0  0  0  0  0  0  0  0  0  0  0  0
  1  2  1  0
  2  3  1  0
  3  4  1  0
  4  5  1  0
  5  6  1  0
  6  7  1  0
  7  8  1  0
  8  9  2  0
  9 10  1  0
 10 11  1  0
  5 12  1  0
 12  2  1  0
 11  7  2  0
  1 13  1  0
  2 14  1  1
  3 15  1  0
  3 16  1  0
  5 17  1  6
  6 18  1  0
  6 19  1  0
 10 20  1  0
 12 21  1  0
 12 22  1  0
M  END
$$$$

     RDKit          3D

 22 23  0  0  0  0  0  0  0  0999 V2000
   -2.9445    1.3361    0.2841 O   0  0  0  0  0  0  0  0  0  0  0  0
   -1.7233    1.1128   -0.3492 C   0  0  2  0  0  0  0  0  0  0  0  0
   -1.8035   -0.1217   -1.2293 C   0  0  0  0  0  0  0  0  0  0  0  0
   -0.6332   -0.8369   -0.9763 O   0  0  0  0  0  0  0  0  0  0  0  0
   -0.5819   -0.7889    0.4168 C   0  0  1  0  0  0  0  0  0  0  0  0
    0.7185   -1.4010    0.8701 C   0  0  0  0  0  0  0  0  0  0  0  0
    1.8510   -0.6351    0.2953 C   0  0  0  0  0  0  0  0  0  0  0  0
    2.4154   -0.9182   -0.8892 N   0  0  0  0  0  0  0  0  0  0  0  0
    3.3885   -0.0798   -1.1394 N   0  0  0  0  0  0  0  0  0  0  0  0
    3.4301    0.7400   -0.0908 N   0  0  0  0  0  0  0  0  0  0  0  0
    2.5150    0.4245    0.7834 N   0  0  0  0  0  0  0  0  0  0  0  0
   -0.6756    0.6820    0.6863 C   0  0  0  0  0  0  0  0  0  0  0  0
   -3.5958    0.6204   -0.0003 H   0  0  0  0  0  0  0  0  0  0  0  0
   -1.3758    1.9970   -0.8836 H   0  0  0  0  0  0  0  0  0  0  0  0
   -2.6467   -0.7443   -0.8941 H   0  0  0  0  0  0  0  0  0  0  0  0
   -1.8677    0.1593   -2.2981 H   0  0  0  0  0  0  0  0  0  0  0  0
   -1.4591   -1.3035    0.8197 H   0  0  0  0  0  0  0  0  0  0  0  0
    0.8100   -1.4419    1.9696 H   0  0  0  0  0  0  0  0  0  0  0  0
    0.7595   -2.4358    0.4812 H   0  0  0  0  0  0  0  0  0  0  0  0
    4.1327    1.5273   -0.0256 H   0  0  0  0  0  0  0  0  0  0  0  0
   -0.9927    0.9322    1.7054 H   0  0  0  0  0  0  0  0  0  0  0  0
    0.2795    1.1755    0.4640 H   0  0  0  0  0  0  0  0  0  0  0  0
  1  2  1  0
  2  3  1  0
  3  4  1  0
  4  5  1  0
  5  6  1  0
  6  7  1  0
  7  8  1  0
  8  9  2  0
  9 10  1  0
 10 11  1  0
  5 12  1  0
 12  2  1  0
 11  7  2  0
  1 13  1  0
  2 14  1  6
  3 15  1  0
  3 16  1  0
  5 17  1  1
  6 18  1  0
  6 19  1  0
 10 20  1  0
 12 21  1  0
 12 22  1  0
M  END
$$$$

     RDKit          3D

 22 23  0  0  0  0  0  0  0  0999 V2000
   -3.1925    0.1784    0.5813 O   0  0  0  0  0  0  0  0  0  0  0  0
   -2.1102    0.5501   -0.2497 C   0  0  2  0  0  0  0  0  0  0  0  0
   -1.7489   -0.5607   -1.1831 C   0  0  0  0  0  0  0  0  0  0  0  0
   -0.4457   -0.9540   -0.8809 O   0  0  0  0  0  0  0  0  0  0  0  0
   -0.3771   -0.8228    0.4699 C   0  0  1  0  0  0  0  0  0  0  0  0
    0.9732   -0.9747    1.0788 C   0  0  0  0  0  0  0  0  0  0  0  0
    1.9791   -0.0285    0.6257 C   0  0  0  0  0  0  0  0  0  0  0  0
    2.2349    1.1649    1.1834 N   0  0  0  0  0  0  0  0  0  0  0  0
    3.1906    1.7593    0.5378 N   0  0  0  0  0  0  0  0  0  0  0  0
    3.5880    0.9882   -0.4499 N   0  0  0  0  0  0  0  0  0  0  0  0
    2.8383   -0.1239   -0.3995 N   0  0  0  0  0  0  0  0  0  0  0  0
   -0.8747    0.6140    0.6582 C   0  0  0  0  0  0  0  0  0  0  0  0
   -3.5675   -0.6900    0.2726 H   0  0  0  0  0  0  0  0  0  0  0  0
   -2.2958    1.5177   -0.7490 H   0  0  0  0  0  0  0  0  0  0  0  0
   -2.4727   -1.3910   -1.0348 H   0  0  0  0  0  0  0  0  0  0  0  0
   -1.8475   -0.1873   -2.2230 H   0  0  0  0  0  0  0  0  0  0  0  0
   -1.0936   -1.4634    1.0228 H   0  0  0  0  0  0  0  0  0  0  0  0
    1.3046   -2.0342    0.8935 H   0  0  0  0  0  0  0  0  0  0  0  0
    0.8357   -0.9156    2.1904 H   0  0  0  0  0  0  0  0  0  0  0  0
    4.3411    1.2253   -1.1220 H   0  0  0  0  0  0  0  0  0  0  0  0
   -1.1248    0.8405    1.6902 H   0  0  0  0  0  0  0  0  0  0  0  0
   -0.1343    1.3077    0.2390 H   0  0  0  0  0  0  0  0  0  0  0  0
  1  2  1  0
  2  3  1  0
  3  4  1  0
  4  5  1  0
  5  6  1  0
  6  7  1  0
  7  8  1  0
  8  9  2  0
  9 10  1  0
 10 11  1  0
  5 12  1  0
 12  2  1  0
 11  7  2  0
  1 13  1  0
  2 14  1  6
  3 15  1  0
  3 16  1  0
  5 17  1  1
  6 18  1  0
  6 19  1  0
 10 20  1  0
 12 21  1  0
 12 22  1  0
M  END
$$$$

     RDKit          3D

 22 23  0  0  0  0  0  0  0  0999 V2000
   -2.2350   -1.5972    1.0700 O   0  0  0  0  0  0  0  0  0  0  0  0
   -1.8852   -0.3032    1.3466 C   0  0  2  0  0  0  0  0  0  0  0  0
   -2.4638    0.5767    0.2311 C   0  0  0  0  0  0  0  0  0  0  0  0
   -1.7838    0.1323   -0.8797 O   0  0  0  0  0  0  0  0  0  0  0  0
   -0.5219   -0.2500   -0.5105 C   0  0  1  0  0  0  0  0  0  0  0  0
    0.5005    0.5623   -1.2491 C   0  0  0  0  0  0  0  0  0  0  0  0
    1.8761    0.1987   -0.8958 C   0  0  0  0  0  0  0  0  0  0  0  0
    2.9675    0.7830   -1.4230 N   0  0  0  0  0  0  0  0  0  0  0  0
    4.0364    0.2330   -0.9009 N   0  0  0  0  0  0  0  0  0  0  0  0
    3.6528   -0.6930   -0.0491 N   0  0  0  0  0  0  0  0  0  0  0  0
    2.3328   -0.7282   -0.0328 N   0  0  0  0  0  0  0  0  0  0  0  0
   -0.4024   -0.1453    0.9795 C   0  0  0  0  0  0  0  0  0  0  0  0
   -2.8726   -1.6700    0.3103 H   0  0  0  0  0  0  0  0  0  0  0  0
   -2.1151    0.0625    2.3360 H   0  0  0  0  0  0  0  0  0  0  0  0
   -2.1630    1.6306    0.4974 H   0  0  0  0  0  0  0  0  0  0  0  0
   -3.5549    0.4690    0.1517 H   0  0  0  0  0  0  0  0  0  0  0  0
   -0.4140   -1.3383   -0.7678 H   0  0  0  0  0  0  0  0  0  0  0  0
    0.2628    1.6238   -1.1274 H   0  0  0  0  0  0  0  0  0  0  0  0
    0.3615    0.3343   -2.3395 H   0  0  0  0  0  0  0  0  0  0  0  0
    4.3408   -1.2696    0.4928 H   0  0  0  0  0  0  0  0  0  0  0  0
    0.2187   -0.9147    1.4382 H   0  0  0  0  0  0  0  0  0  0  0  0
   -0.1381    0.8890    1.3222 H   0  0  0  0  0  0  0  0  0  0  0  0
  1  2  1  0
  2  3  1  0
  3  4  1  0
  4  5  1  0
  5  6  1  0
  6  7  1  0
  7  8  1  0
  8  9  2  0
  9 10  1  0
 10 11  1  0
  5 12  1  0
 12  2  1  0
 11  7  2  0
  1 13  1  0
  2 14  1  1
  3 15  1  0
  3 16  1  0
  5 17  1  1
  6 18  1  0
  6 19  1  0
 10 20  1  0
 12 21  1  0
 12 22  1  0
M  END
$$$$

     RDKit          3D

 22 23  0  0  0  0  0  0  0  0999 V2000
   -2.9750   -0.7265   -0.7679 O   0  0  0  0  0  0  0  0  0  0  0  0
   -2.5522    0.3200    0.0273 C   0  0  2  0  0  0  0  0  0  0  0  0
   -1.6004    1.2520   -0.6960 C   0  0  0  0  0  0  0  0  0  0  0  0
   -0.4541    0.5208   -0.8542 O   0  0  0  0  0  0  0  0  0  0  0  0
   -0.3403   -0.3911    0.1549 C   0  0  1  0  0  0  0  0  0  0  0  0
    0.8686   -0.1960    1.0342 C   0  0  0  0  0  0  0  0  0  0  0  0
    2.1419   -0.2833    0.3096 C   0  0  0  0  0  0  0  0  0  0  0  0
    2.8621   -1.4022    0.1096 N   0  0  0  0  0  0  0  0  0  0  0  0
    3.9633   -1.0946   -0.5923 N   0  0  0  0  0  0  0  0  0  0  0  0
    3.9377    0.2205   -0.8353 N   0  0  0  0  0  0  0  0  0  0  0  0
    2.8375    0.7003   -0.2886 N   0  0  0  0  0  0  0  0  0  0  0  0
   -1.5625   -0.2783    1.0376 C   0  0  0  0  0  0  0  0  0  0  0  0
   -2.9307   -1.5798   -0.2476 H   0  0  0  0  0  0  0  0  0  0  0  0
   -3.3700    0.8568    0.5393 H   0  0  0  0  0  0  0  0  0  0  0  0
   -1.4009    2.0956    0.0205 H   0  0  0  0  0  0  0  0  0  0  0  0
   -2.0276    1.6237   -1.6474 H   0  0  0  0  0  0  0  0  0  0  0  0
   -0.3367   -1.4477   -0.2285 H   0  0  0  0  0  0  0  0  0  0  0  0
    0.7241    0.7812    1.5618 H   0  0  0  0  0  0  0  0  0  0  0  0
    0.7877   -0.9719    1.8475 H   0  0  0  0  0  0  0  0  0  0  0  0
    4.6886    0.7124   -1.3693 H   0  0  0  0  0  0  0  0  0  0  0  0
   -1.3550    0.5105    1.7808 H   0  0  0  0  0  0  0  0  0  0  0  0
   -1.9062   -1.2223    1.4493 H   0  0  0  0  0  0  0  0  0  0  0  0
  1  2  1  0
  2  3  1  0
  3  4  1  0
  4  5  1  0
  5  6  1  0
  6  7  1  0
  7  8  1  0
  8  9  2  0
  9 10  1  0
 10 11  1  0
  5 12  1  0
 12  2  1  0
 11  7  2  0
  1 13  1  0
  2 14  1  1
  3 15  1  0
  3 16  1  0
  5 17  1  6
  6 18  1  0
  6 19  1  0
 10 20  1  0
 12 21  1  0
 12 22  1  0
M  END
$$$$

     RDKit          3D

 22 23  0  0  0  0  0  0  0  0999 V2000
   -2.4665   -1.7333    0.8800 O   0  0  0  0  0  0  0  0  0  0  0  0
   -2.2137   -0.3730    0.6619 C   0  0  2  0  0  0  0  0  0  0  0  0
   -2.5372    0.0194   -0.7364 C   0  0  0  0  0  0  0  0  0  0  0  0
   -1.3881    0.1969   -1.4543 O   0  0  0  0  0  0  0  0  0  0  0  0
   -0.2891   -0.0674   -0.6896 C   0  0  1  0  0  0  0  0  0  0  0  0
    0.7952    0.9908   -0.8691 C   0  0  0  0  0  0  0  0  0  0  0  0
    1.9599    0.6427   -0.0105 C   0  0  0  0  0  0  0  0  0  0  0  0
    2.1461    1.0386    1.2632 N   0  0  0  0  0  0  0  0  0  0  0  0
    3.2957    0.5176    1.6645 N   0  0  0  0  0  0  0  0  0  0  0  0
    3.8291   -0.1897    0.6789 N   0  0  0  0  0  0  0  0  0  0  0  0
    3.0048   -0.1122   -0.3541 N   0  0  0  0  0  0  0  0  0  0  0  0
   -0.7221   -0.1285    0.7507 C   0  0  0  0  0  0  0  0  0  0  0  0
   -2.0327   -2.2474    0.1393 H   0  0  0  0  0  0  0  0  0  0  0  0
   -2.7267    0.2321    1.4132 H   0  0  0  0  0  0  0  0  0  0  0  0
   -3.1778    0.9305   -0.7711 H   0  0  0  0  0  0  0  0  0  0  0  0
   -3.1234   -0.8045   -1.2364 H   0  0  0  0  0  0  0  0  0  0  0  0
    0.1246   -1.0548   -0.9804 H   0  0  0  0  0  0  0  0  0  0  0  0
    0.4048    1.9808   -0.5877 H   0  0  0  0  0  0  0  0  0  0  0  0
    1.1583    0.9634   -1.9165 H   0  0  0  0  0  0  0  0  0  0  0  0
    4.7174   -0.7233    0.6590 H   0  0  0  0  0  0  0  0  0  0  0  0
   -0.5167    0.8500    1.2428 H   0  0  0  0  0  0  0  0  0  0  0  0
   -0.2421   -0.9287    1.3281 H   0  0  0  0  0  0  0  0  0  0  0  0
  1  2  1  0
  2  3  1  0
  3  4  1  0
  4  5  1  0
  5  6  1  0
  6  7  1  0
  7  8  1  0
  8  9  2  0
  9 10  1  0
 10 11  1  0
  5 12  1  0
 12  2  1  0
 11  7  2  0
  1 13  1  0
  2 14  1  1
  3 15  1  0
  3 16  1  0
  5 17  1  6
  6 18  1  0
  6 19  1  0
 10 20  1  0
 12 21  1  0
 12 22  1  0
M  END
$$$$

     RDKit          3D

 22 23  0  0  0  0  0  0  0  0999 V2000
   -2.3425    1.3912    1.0806 O   0  0  0  0  0  0  0  0  0  0  0  0
   -2.3766    0.0308    0.8168 C   0  0  2  0  0  0  0  0  0  0  0  0
   -1.2743   -0.6228    1.6158 C   0  0  0  0  0  0  0  0  0  0  0  0
   -0.1047   -0.4900    0.9134 O   0  0  0  0  0  0  0  0  0  0  0  0
   -0.3558    0.1769   -0.2608 C   0  0  1  0  0  0  0  0  0  0  0  0
    0.6013   -0.2565   -1.3420 C   0  0  0  0  0  0  0  0  0  0  0  0
    1.9763    0.0618   -0.8555 C   0  0  0  0  0  0  0  0  0  0  0  0
    2.6729    1.2006   -1.0297 N   0  0  0  0  0  0  0  0  0  0  0  0
    3.8631    1.0797   -0.4379 N   0  0  0  0  0  0  0  0  0  0  0  0
    3.9441   -0.1036    0.1080 N   0  0  0  0  0  0  0  0  0  0  0  0
    2.7956   -0.7426   -0.1378 N   0  0  0  0  0  0  0  0  0  0  0  0
   -1.7912   -0.1664   -0.5896 C   0  0  0  0  0  0  0  0  0  0  0  0
   -2.6993    1.8786    0.2877 H   0  0  0  0  0  0  0  0  0  0  0  0
   -3.3493   -0.4292    0.9269 H   0  0  0  0  0  0  0  0  0  0  0  0
   -1.5195   -1.7236    1.6375 H   0  0  0  0  0  0  0  0  0  0  0  0
   -1.2245   -0.2491    2.6545 H   0  0  0  0  0  0  0  0  0  0  0  0
   -0.2764    1.2700   -0.1118 H   0  0  0  0  0  0  0  0  0  0  0  0
    0.4006    0.3134   -2.2755 H   0  0  0  0  0  0  0  0  0  0  0  0
    0.4868   -1.3560   -1.4998 H   0  0  0  0  0  0  0  0  0  0  0  0
    4.7217   -0.5515    0.6533 H   0  0  0  0  0  0  0  0  0  0  0  0
   -2.2472    0.5161   -1.3202 H   0  0  0  0  0  0  0  0  0  0  0  0
   -1.9012   -1.2278   -0.8340 H   0  0  0  0  0  0  0  0  0  0  0  0
  1  2  1  0
  2  3  1  0
  3  4  1  0
  4  5  1  0
  5  6  1  0
  6  7  1  0
  7  8  1  0
  8  9  2  0
  9 10  1  0
 10 11  1  0
  5 12  1  0
 12  2  1  0
 11  7  2  0
  1 13  1  0
  2 14  1  6
  3 15  1  0
  3 16  1  0
  5 17  1  1
  6 18  1  0
  6 19  1  0
 10 20  1  0
 12 21  1  0
 12 22  1  0
M  END
$$$$
