
     RDKit          3D

 25 25  0  0  0  0  0  0  0  0999 V2000
    2.6863    0.0537   -0.1016 C   0  0  0  0  0  0  0  0  0  0  0  0
    1.3589    0.4983   -0.7256 C   0  0  2  0  0  0  0  0  0  0  0  0
    1.5094    1.8000   -1.1127 O   0  0  0  0  0  0  0  0  0  0  0  0
    0.2959    0.2567    0.2950 C   0  0  2  0  0  0  0  0  0  0  0  0
    0.2945   -1.2401    0.5882 C   0  0  0  0  0  0  0  0  0  0  0  0
   -0.8331   -1.6157    1.3910 N   0  0  0  0  0  0  0  0  0  0  0  0
   -2.0000   -1.6385    0.5240 C   0  0  0  0  0  0  0  0  0  0  0  0
   -2.1285   -0.2818   -0.0615 C   0  0  0  0  0  0  0  0  0  0  0  0
   -3.2672    0.0320   -0.5167 O   0  0  0  0  0  0  0  0  0  0  0  0
   -1.0206    0.6383   -0.1141 N   0  0  0  0  0  0  0  0  0  0  0  0
   -1.3484    1.9621   -0.6088 C   0  0  0  0  0  0  0  0  0  0  0  0
    2.8047   -1.0510   -0.1566 H   0  0  0  0  0  0  0  0  0  0  0  0
    2.6523    0.3818    0.9698 H   0  0  0  0  0  0  0  0  0  0  0  0
    3.5336    0.5355   -0.6331 H   0  0  0  0  0  0  0  0  0  0  0  0
    1.1920   -0.1585   -1.5981 H   0  0  0  0  0  0  0  0  0  0  0  0
    2.2076    2.2941   -0.6508 H   0  0  0  0  0  0  0  0  0  0  0  0
    0.5661    0.7542    1.2609 H   0  0  0  0  0  0  0  0  0  0  0  0
    0.2007   -1.7479   -0.4092 H   0  0  0  0  0  0  0  0  0  0  0  0
    1.2268   -1.5536    1.0898 H   0  0  0  0  0  0  0  0  0  0  0  0
   -0.6932   -2.4949    1.8999 H   0  0  0  0  0  0  0  0  0  0  0  0
   -2.8687   -1.9400    1.1281 H   0  0  0  0  0  0  0  0  0  0  0  0
   -1.8874   -2.3789   -0.2889 H   0  0  0  0  0  0  0  0  0  0  0  0
   -1.6991    1.8632   -1.6760 H   0  0  0  0  0  0  0  0  0  0  0  0
   -0.5556    2.6940   -0.4802 H   0  0  0  0  0  0  0  0  0  0  0  0
   -2.2270    2.3367   -0.0128 H   0  0  0  0  0  0  0  0  0  0  0  0
  1  2  1  0
  2  3  1  0
  2  4  1  0
  4  5  1  0
  5  6  1  0
  6  7  1  0
  7  8  1  0
  8  9  2  0
  8 10  1  0
 10 11  1  0
 10  4  1  0
  1 12  1  0
  1 13  1  0
  1 14  1  0
  2 15  1  6
  3 16  1  0
  4 17  1  1
  5 18  1  0
  5 19  1  0
  6 20  1  0
  7 21  1  0
  7 22  1  0
 11 23  1  0
 11 24  1  0
 11 25  1  0
M  END
$$$$

     RDKit          3D

 25 25  0  0  0  0  0  0  0  0999 V2000
    2.1972    0.7267   -0.2758 C   0  0  0  0  0  0  0  0  0  0  0  0
    1.5693   -0.1530    0.7595 C   0  0  2  0  0  0  0  0  0  0  0  0
    2.2328   -1.4028    0.7734 O   0  0  0  0  0  0  0  0  0  0  0  0
    0.1260   -0.4584    0.4946 C   0  0  2  0  0  0  0  0  0  0  0  0
   -0.0288   -1.2951   -0.7253 C   0  0  0  0  0  0  0  0  0  0  0  0
   -1.1039   -0.8944   -1.6072 N   0  0  0  0  0  0  0  0  0  0  0  0
   -2.3381   -0.7607   -0.8153 C   0  0  0  0  0  0  0  0  0  0  0  0
   -2.0769    0.4505    0.0390 C   0  0  0  0  0  0  0  0  0  0  0  0
   -3.0379    1.1902    0.3517 O   0  0  0  0  0  0  0  0  0  0  0  0
   -0.7288    0.6750    0.4397 N   0  0  0  0  0  0  0  0  0  0  0  0
   -0.3480    2.0326    0.7562 C   0  0  0  0  0  0  0  0  0  0  0  0
    3.1947    0.2929   -0.5702 H   0  0  0  0  0  0  0  0  0  0  0  0
    2.4243    1.7515    0.0917 H   0  0  0  0  0  0  0  0  0  0  0  0
    1.5664    0.8558   -1.1813 H   0  0  0  0  0  0  0  0  0  0  0  0
    1.7415    0.2817    1.7444 H   0  0  0  0  0  0  0  0  0  0  0  0
    2.0009   -1.8004    1.6537 H   0  0  0  0  0  0  0  0  0  0  0  0
   -0.2216   -1.0872    1.3675 H   0  0  0  0  0  0  0  0  0  0  0  0
    0.9135   -1.3350   -1.3408 H   0  0  0  0  0  0  0  0  0  0  0  0
   -0.2288   -2.3792   -0.4795 H   0  0  0  0  0  0  0  0  0  0  0  0
   -1.2663   -1.7007   -2.2710 H   0  0  0  0  0  0  0  0  0  0  0  0
   -3.1837   -0.5511   -1.5045 H   0  0  0  0  0  0  0  0  0  0  0  0
   -2.4997   -1.6481   -0.1808 H   0  0  0  0  0  0  0  0  0  0  0  0
    0.4764    2.1047    1.4672 H   0  0  0  0  0  0  0  0  0  0  0  0
   -0.1596    2.5489   -0.2048 H   0  0  0  0  0  0  0  0  0  0  0  0
   -1.2207    2.5556    1.2178 H   0  0  0  0  0  0  0  0  0  0  0  0
  1  2  1  0
  2  3  1  0
  2  4  1  0
  4  5  1  0
  5  6  1  0
  6  7  1  0
  7  8  1  0
  8  9  2  0
  8 10  1  0
 10 11  1  0
 10  4  1  0
  1 12  1  0
  1 13  1  0
  1 14  1  0
  2 15  1  1
  3 16  1  0
  4 17  1  1
  5 18  1  0
  5 19  1  0
  6 20  1  0
  7 21  1  0
  7 22  1  0
 11 23  1  0
 11 24  1  0
 11 25  1  0
M  END
$$$$

     RDKit          3D

 25 25  0  0  0  0  0  0  0  0999 V2000
   -2.6437    0.1522   -0.5457 C   0  0  0  0  0  0  0  0  0  0  0  0
   -1.6176   -0.5430    0.2802 C   0  0  2  0  0  0  0  0  0  0  0  0
   -1.6862   -0.2102    1.6372 O   0  0  0  0  0  0  0  0  0  0  0  0
   -0.2248   -0.4728   -0.2505 C   0  0  2  0  0  0  0  0  0  0  0  0
    0.5995   -1.4875    0.5007 C   0  0  0  0  0  0  0  0  0  0  0  0
    1.9265   -1.6359    0.0504 N   0  0  0  0  0  0  0  0  0  0  0  0
    2.4958   -0.5632   -0.6726 C   0  0  0  0  0  0  0  0  0  0  0  0
    1.8370    0.7493   -0.4484 C   0  0  0  0  0  0  0  0  0  0  0  0
    2.5172    1.8080   -0.5042 O   0  0  0  0  0  0  0  0  0  0  0  0
    0.4210    0.7900   -0.1688 N   0  0  0  0  0  0  0  0  0  0  0  0
   -0.1142    2.0581    0.1414 C   0  0  0  0  0  0  0  0  0  0  0  0
   -3.4290   -0.5324   -0.9539 H   0  0  0  0  0  0  0  0  0  0  0  0
   -3.2194    0.8407    0.1392 H   0  0  0  0  0  0  0  0  0  0  0  0
   -2.2346    0.6896   -1.4220 H   0  0  0  0  0  0  0  0  0  0  0  0
   -1.8866   -1.6439    0.2580 H   0  0  0  0  0  0  0  0  0  0  0  0
   -0.9527    0.3847    1.9171 H   0  0  0  0  0  0  0  0  0  0  0  0
   -0.2451   -0.7898   -1.3093 H   0  0  0  0  0  0  0  0  0  0  0  0
    0.0713   -2.4762    0.3609 H   0  0  0  0  0  0  0  0  0  0  0  0
    0.4938   -1.2592    1.5773 H   0  0  0  0  0  0  0  0  0  0  0  0
    2.5291   -1.9491    0.8626 H   0  0  0  0  0  0  0  0  0  0  0  0
    2.4943   -0.8299   -1.7598 H   0  0  0  0  0  0  0  0  0  0  0  0
    3.5567   -0.4452   -0.3690 H   0  0  0  0  0  0  0  0  0  0  0  0
   -1.2009    2.1382    0.1880 H   0  0  0  0  0  0  0  0  0  0  0  0
    0.2314    2.7962   -0.6227 H   0  0  0  0  0  0  0  0  0  0  0  0
    0.2813    2.4313    1.1137 H   0  0  0  0  0  0  0  0  0  0  0  0
  1  2  1  0
  2  3  1  0
  2  4  1  0
  4  5  1  0
  5  6  1  0
  6  7  1  0
  7  8  1  0
  8  9  2  0
  8 10  1  0
 10 11  1  0
 10  4  1  0
  1 12  1  0
  1 13  1  0
  1 14  1  0
  2 15  1  1
  3 16  1  0
  4 17  1  6
  5 18  1  0
  5 19  1  0
  6 20  1  0
  7 21  1  0
  7 22  1  0
 11 23  1  0
 11 24  1  0
 11 25  1  0
M  END
$$$$

     RDKit          3D

 25 25  0  0  0  0  0  0  0  0999 V2000
    2.4761    0.9687   -0.1464 C   0  0  0  0  0  0  0  0  0  0  0  0
    1.4343    0.0871    0.5078 C   0  0  2  0  0  0  0  0  0  0  0  0
    2.0209   -1.0135    1.0815 O   0  0  0  0  0  0  0  0  0  0  0  0
    0.3862   -0.2476   -0.5239 C   0  0  2  0  0  0  0  0  0  0  0  0
   -0.1642    1.0689   -1.0341 C   0  0  0  0  0  0  0  0  0  0  0  0
   -1.0841    1.5545   -0.0266 N   0  0  0  0  0  0  0  0  0  0  0  0
   -2.3333    0.8706   -0.2075 C   0  0  0  0  0  0  0  0  0  0  0  0
   -2.0524   -0.5871   -0.0789 C   0  0  0  0  0  0  0  0  0  0  0  0
   -3.0275   -1.3807   -0.0630 O   0  0  0  0  0  0  0  0  0  0  0  0
   -0.7027   -1.0224    0.0201 N   0  0  0  0  0  0  0  0  0  0  0  0
   -0.4840   -2.2926    0.7001 C   0  0  0  0  0  0  0  0  0  0  0  0
    3.4869    0.7965    0.3183 H   0  0  0  0  0  0  0  0  0  0  0  0
    2.2045    2.0356    0.0414 H   0  0  0  0  0  0  0  0  0  0  0  0
    2.4875    0.7229   -1.2270 H   0  0  0  0  0  0  0  0  0  0  0  0
    0.9441    0.6675    1.3148 H   0  0  0  0  0  0  0  0  0  0  0  0
    2.0633   -0.9769    2.0670 H   0  0  0  0  0  0  0  0  0  0  0  0
    0.8571   -0.8411   -1.3601 H   0  0  0  0  0  0  0  0  0  0  0  0
    0.6408    1.8020   -1.2474 H   0  0  0  0  0  0  0  0  0  0  0  0
   -0.6757    0.8950   -2.0105 H   0  0  0  0  0  0  0  0  0  0  0  0
   -1.1591    2.5907   -0.0152 H   0  0  0  0  0  0  0  0  0  0  0  0
   -3.0801    1.1775    0.5545 H   0  0  0  0  0  0  0  0  0  0  0  0
   -2.7908    1.0571   -1.2009 H   0  0  0  0  0  0  0  0  0  0  0  0
   -0.7510   -2.2105    1.7899 H   0  0  0  0  0  0  0  0  0  0  0  0
   -1.2070   -3.0126    0.2153 H   0  0  0  0  0  0  0  0  0  0  0  0
    0.5101   -2.7098    0.5308 H   0  0  0  0  0  0  0  0  0  0  0  0
  1  2  1  0
  2  3  1  0
  2  4  1  0
  4  5  1  0
  5  6  1  0
  6  7  1  0
  7  8  1  0
  8  9  2  0
  8 10  1  0
 10 11  1  0
 10  4  1  0
  1 12  1  0
  1 13  1  0
  1 14  1  0
  2 15  1  1
  3 16  1  0
  4 17  1  6
  5 18  1  0
  5 19  1  0
  6 20  1  0
  7 21  1  0
  7 22  1  0
 11 23  1  0
 11 24  1  0
 11 25  1  0
M  END
$$$$

     RDKit          3D

 25 25  0  0  0  0  0  0  0  0999 V2000
    2.5197   -0.5207    0.7150 C   0  0  0  0  0  0  0  0  0  0  0  0
    1.3432   -0.9867   -0.0825 C   0  0  2  0  0  0  0  0  0  0  0  0
    1.5284   -0.8322   -1.4692 O   0  0  0  0  0  0  0  0  0  0  0  0
    0.0291   -0.4572    0.3699 C   0  0  2  0  0  0  0  0  0  0  0  0
   -1.0516   -1.2106   -0.3896 C   0  0  0  0  0  0  0  0  0  0  0  0
   -2.3084   -0.9655    0.2621 N   0  0  0  0  0  0  0  0  0  0  0  0
   -2.6925    0.4073    0.1203 C   0  0  0  0  0  0  0  0  0  0  0  0
   -1.5731    1.3615    0.1254 C   0  0  0  0  0  0  0  0  0  0  0  0
   -1.8567    2.5866    0.1329 O   0  0  0  0  0  0  0  0  0  0  0  0
   -0.1927    0.9338    0.1221 N   0  0  0  0  0  0  0  0  0  0  0  0
    0.7896    1.9280   -0.1237 C   0  0  0  0  0  0  0  0  0  0  0  0
    2.9889   -1.3468    1.3275 H   0  0  0  0  0  0  0  0  0  0  0  0
    2.2444    0.2502    1.4924 H   0  0  0  0  0  0  0  0  0  0  0  0
    3.3686   -0.1548    0.0755 H   0  0  0  0  0  0  0  0  0  0  0  0
    1.2933   -2.1094    0.0567 H   0  0  0  0  0  0  0  0  0  0  0  0
    2.1231   -1.5644   -1.8248 H   0  0  0  0  0  0  0  0  0  0  0  0
   -0.1003   -0.7380    1.4380 H   0  0  0  0  0  0  0  0  0  0  0  0
   -0.7917   -2.2660   -0.4819 H   0  0  0  0  0  0  0  0  0  0  0  0
   -1.1111   -0.6993   -1.3951 H   0  0  0  0  0  0  0  0  0  0  0  0
   -3.0264   -1.5723   -0.2192 H   0  0  0  0  0  0  0  0  0  0  0  0
   -3.2832    0.5864   -0.7978 H   0  0  0  0  0  0  0  0  0  0  0  0
   -3.3682    0.6551    0.9730 H   0  0  0  0  0  0  0  0  0  0  0  0
    0.9931    2.4731    0.8429 H   0  0  0  0  0  0  0  0  0  0  0  0
    0.3691    2.6987   -0.8002 H   0  0  0  0  0  0  0  0  0  0  0  0
    1.7654    1.5432   -0.4695 H   0  0  0  0  0  0  0  0  0  0  0  0
  1  2  1  0
  2  3  1  0
  2  4  1  0
  4  5  1  0
  5  6  1  0
  6  7  1  0
  7  8  1  0
  8  9  2  0
  8 10  1  0
 10 11  1  0
 10  4  1  0
  1 12  1  0
  1 13  1  0
  1 14  1  0
  2 15  1  6
  3 16  1  0
  4 17  1  1
  5 18  1  0
  5 19  1  0
  6 20  1  0
  7 21  1  0
  7 22  1  0
 11 23  1  0
 11 24  1  0
 11 25  1  0
M  END
$$$$

     RDKit          3D

 25 25  0  0  0  0  0  0  0  0999 V2000
    2.1222   -1.2849    0.1279 C   0  0  0  0  0  0  0  0  0  0  0  0
    1.4977    0.0372   -0.2428 C   0  0  2  0  0  0  0  0  0  0  0  0
    1.4902    0.8438    0.8693 O   0  0  0  0  0  0  0  0  0  0  0  0
    0.1318   -0.1263   -0.8666 C   0  0  2  0  0  0  0  0  0  0  0  0
   -0.3490    1.3040   -1.1623 C   0  0  0  0  0  0  0  0  0  0  0  0
   -0.3980    1.9498    0.1337 N   0  0  0  0  0  0  0  0  0  0  0  0
   -1.6483    1.5919    0.7634 C   0  0  0  0  0  0  0  0  0  0  0  0
   -1.6810    0.0892    0.8203 C   0  0  0  0  0  0  0  0  0  0  0  0
   -2.5170   -0.4014    1.6257 O   0  0  0  0  0  0  0  0  0  0  0  0
   -0.8263   -0.7060    0.0190 N   0  0  0  0  0  0  0  0  0  0  0  0
   -0.9481   -2.1406    0.1199 C   0  0  0  0  0  0  0  0  0  0  0  0
    3.1379   -1.0609    0.5173 H   0  0  0  0  0  0  0  0  0  0  0  0
    2.2457   -1.9666   -0.7210 H   0  0  0  0  0  0  0  0  0  0  0  0
    1.5774   -1.7625    0.9786 H   0  0  0  0  0  0  0  0  0  0  0  0
    2.1485    0.5093   -1.0072 H   0  0  0  0  0  0  0  0  0  0  0  0
    2.2493    1.4798    0.8974 H   0  0  0  0  0  0  0  0  0  0  0  0
    0.2362   -0.6465   -1.8318 H   0  0  0  0  0  0  0  0  0  0  0  0
   -1.3495    1.2612   -1.6456 H   0  0  0  0  0  0  0  0  0  0  0  0
    0.4189    1.7803   -1.8139 H   0  0  0  0  0  0  0  0  0  0  0  0
   -0.2050    2.9562    0.1076 H   0  0  0  0  0  0  0  0  0  0  0  0
   -1.7599    2.0104    1.7753 H   0  0  0  0  0  0  0  0  0  0  0  0
   -2.4727    1.9128    0.1038 H   0  0  0  0  0  0  0  0  0  0  0  0
   -0.7815   -2.5070    1.1701 H   0  0  0  0  0  0  0  0  0  0  0  0
   -2.0061   -2.4468   -0.1247 H   0  0  0  0  0  0  0  0  0  0  0  0
   -0.3136   -2.6765   -0.6135 H   0  0  0  0  0  0  0  0  0  0  0  0
  1  2  1  0
  2  3  1  0
  2  4  1  0
  4  5  1  0
  5  6  1  0
  6  7  1  0
  7  8  1  0
  8  9  2  0
  8 10  1  0
 10 11  1  0
 10  4  1  0
  1 12  1  0
  1 13  1  0
  1 14  1  0
  2 15  1  6
  3 16  1  0
  4 17  1  6
  5 18  1  0
  5 19  1  0
  6 20  1  0
  7 21  1  0
  7 22  1  0
 11 23  1  0
 11 24  1  0
 11 25  1  0
M  END
$$$$

     RDKit          3D

 25 25  0  0  0  0  0  0  0  0999 V2000
    2.1679    0.6036    1.1381 C   0  0  0  0  0  0  0  0  0  0  0  0
    1.6766    0.1049   -0.2042 C   0  0  2  0  0  0  0  0  0  0  0  0
    1.8036    1.0948   -1.1338 O   0  0  0  0  0  0  0  0  0  0  0  0
    0.3150   -0.4744   -0.0617 C   0  0  2  0  0  0  0  0  0  0  0  0
   -0.1397   -1.1435   -1.3449 C   0  0  0  0  0  0  0  0  0  0  0  0
   -1.3275   -1.9219   -1.1886 N   0  0  0  0  0  0  0  0  0  0  0  0
   -2.1139   -1.5778   -0.0249 C   0  0  0  0  0  0  0  0  0  0  0  0
   -2.0391   -0.1254    0.2868 C   0  0  0  0  0  0  0  0  0  0  0  0
   -3.0425    0.5918    0.5134 O   0  0  0  0  0  0  0  0  0  0  0  0
   -0.7145    0.4371    0.3170 N   0  0  0  0  0  0  0  0  0  0  0  0
   -0.5430    1.8000    0.7054 C   0  0  0  0  0  0  0  0  0  0  0  0
    1.4970    0.2209    1.9328 H   0  0  0  0  0  0  0  0  0  0  0  0
    2.1321    1.7073    1.1826 H   0  0  0  0  0  0  0  0  0  0  0  0
    3.2204    0.3055    1.3221 H   0  0  0  0  0  0  0  0  0  0  0  0
    2.3633   -0.7260   -0.4936 H   0  0  0  0  0  0  0  0  0  0  0  0
    2.4727    1.7817   -0.9088 H   0  0  0  0  0  0  0  0  0  0  0  0
    0.3544   -1.2786    0.7064 H   0  0  0  0  0  0  0  0  0  0  0  0
    0.7077   -1.7151   -1.7807 H   0  0  0  0  0  0  0  0  0  0  0  0
   -0.3293   -0.3100   -2.0804 H   0  0  0  0  0  0  0  0  0  0  0  0
   -1.9615   -1.9009   -2.0202 H   0  0  0  0  0  0  0  0  0  0  0  0
   -3.1566   -1.9130   -0.1553 H   0  0  0  0  0  0  0  0  0  0  0  0
   -1.7281   -2.1565    0.8651 H   0  0  0  0  0  0  0  0  0  0  0  0
    0.1343    2.3716    0.0309 H   0  0  0  0  0  0  0  0  0  0  0  0
   -1.5284    2.3366    0.6406 H   0  0  0  0  0  0  0  0  0  0  0  0
   -0.2208    1.8874    1.7560 H   0  0  0  0  0  0  0  0  0  0  0  0
  1  2  1  0
  2  3  1  0
  2  4  1  0
  4  5  1  0
  5  6  1  0
  6  7  1  0
  7  8  1  0
  8  9  2  0
  8 10  1  0
 10 11  1  0
 10  4  1  0
  1 12  1  0
  1 13  1  0
  1 14  1  0
  2 15  1  6
  3 16  1  0
  4 17  1  1
  5 18  1  0
  5 19  1  0
  6 20  1  0
  7 21  1  0
  7 22  1  0
 11 23  1  0
 11 24  1  0
 11 25  1  0
M  END
$$$$

     RDKit          3D

 25 25  0  0  0  0  0  0  0  0999 V2000
   -2.3924   -1.1666   -0.0124 C   0  0  0  0  0  0  0  0  0  0  0  0
   -1.4096   -0.1703    0.5550 C   0  0  2  0  0  0  0  0  0  0  0  0
   -2.0433    0.9796    1.0147 O   0  0  0  0  0  0  0  0  0  0  0  0
   -0.3397    0.1810   -0.4890 C   0  0  2  0  0  0  0  0  0  0  0  0
    0.1682   -1.1171   -1.0257 C   0  0  0  0  0  0  0  0  0  0  0  0
    1.5898   -1.2048   -1.1598 N   0  0  0  0  0  0  0  0  0  0  0  0
    2.3259   -0.7895    0.0016 C   0  0  0  0  0  0  0  0  0  0  0  0
    1.9791    0.6096    0.3522 C   0  0  0  0  0  0  0  0  0  0  0  0
    2.8339    1.3731    0.8974 O   0  0  0  0  0  0  0  0  0  0  0  0
    0.6597    1.0407    0.0490 N   0  0  0  0  0  0  0  0  0  0  0  0
    0.3590    2.4327    0.3160 C   0  0  0  0  0  0  0  0  0  0  0  0
   -2.0332   -1.4523   -1.0310 H   0  0  0  0  0  0  0  0  0  0  0  0
   -3.3885   -0.6568   -0.1597 H   0  0  0  0  0  0  0  0  0  0  0  0
   -2.4953   -2.0340    0.6402 H   0  0  0  0  0  0  0  0  0  0  0  0
   -0.9215   -0.6443    1.4308 H   0  0  0  0  0  0  0  0  0  0  0  0
   -1.9851    1.1055    1.9765 H   0  0  0  0  0  0  0  0  0  0  0  0
   -0.8897    0.7538   -1.2736 H   0  0  0  0  0  0  0  0  0  0  0  0
   -0.2696   -1.2692   -2.0374 H   0  0  0  0  0  0  0  0  0  0  0  0
   -0.1621   -1.9881   -0.4225 H   0  0  0  0  0  0  0  0  0  0  0  0
    1.8239   -2.1964   -1.3903 H   0  0  0  0  0  0  0  0  0  0  0  0
    2.2216   -1.4432    0.8696 H   0  0  0  0  0  0  0  0  0  0  0  0
    3.4059   -0.7787   -0.2859 H   0  0  0  0  0  0  0  0  0  0  0  0
    0.9579    3.0802   -0.3656 H   0  0  0  0  0  0  0  0  0  0  0  0
   -0.6877    2.6968    0.1931 H   0  0  0  0  0  0  0  0  0  0  0  0
    0.6926    2.6583    1.3568 H   0  0  0  0  0  0  0  0  0  0  0  0
  1  2  1  0
  2  3  1  0
  2  4  1  0
  4  5  1  0
  5  6  1  0
  6  7  1  0
  7  8  1  0
  8  9  2  0
  8 10  1  0
 10 11  1  0
 10  4  1  0
  1 12  1  0
  1 13  1  0
  1 14  1  0
  2 15  1  1
  3 16  1  0
  4 17  1  6
  5 18  1  0
  5 19  1  0
  6 20  1  0
  7 21  1  0
  7 22  1  0
 11 23  1  0
 11 24  1  0
 11 25  1  0
M  END
$$$$
