
     RDKit          3D

 24 25  0  0  0  0  0  0  0  0999 V2000
    4.2182    0.3267    0.2065 C   0  0  0  0  0  0  0  0  0  0  0  0
    2.9462   -0.2363   -0.1781 N   0  0  0  0  0  0  0  0  0  0  0  0
    1.7678    0.4334   -0.0462 C   0  0  0  0  0  0  0  0  0  0  0  0
    0.7738   -0.3934   -0.5053 C   0  0  0  0  0  0  0  0  0  0  0  0
   -0.6550   -0.0447   -0.5352 C   0  0  1  0  0  0  0  0  0  0  0  0
   -1.5218   -1.2816   -0.8092 C   0  0  0  0  0  0  0  0  0  0  0  0
   -2.8681   -0.7872   -0.9639 N   0  0  0  0  0  0  0  0  0  0  0  0
   -3.2356    0.4067   -0.2984 C   0  0  0  0  0  0  0  0  0  0  0  0
   -4.2251    1.1148   -0.6946 O   0  0  0  0  0  0  0  0  0  0  0  0
   -2.4234    0.8048    0.8815 C   0  0  0  0  0  0  0  0  0  0  0  0
   -1.0102    0.5618    0.7105 N   0  0  0  0  0  0  0  0  0  0  0  0
    1.3445   -1.5380   -0.9053 N   0  0  0  0  0  0  0  0  0  0  0  0
    2.6641   -1.4256   -0.6996 N   0  0  0  0  0  0  0  0  0  0  0  0
    5.0399   -0.3754    0.0707 H   0  0  0  0  0  0  0  0  0  0  0  0
    4.3395    1.2720   -0.3819 H   0  0  0  0  0  0  0  0  0  0  0  0
    4.1144    0.6740    1.2706 H   0  0  0  0  0  0  0  0  0  0  0  0
    1.6569    1.4291    0.3484 H   0  0  0  0  0  0  0  0  0  0  0  0
   -0.9131    0.6753   -1.3513 H   0  0  0  0  0  0  0  0  0  0  0  0
   -1.1261   -1.7760   -1.7113 H   0  0  0  0  0  0  0  0  0  0  0  0
   -1.5339   -1.9593    0.0803 H   0  0  0  0  0  0  0  0  0  0  0  0
   -3.5444   -1.3012   -1.5514 H   0  0  0  0  0  0  0  0  0  0  0  0
   -2.7420    0.1582    1.7508 H   0  0  0  0  0  0  0  0  0  0  0  0
   -2.6329    1.8561    1.1997 H   0  0  0  0  0  0  0  0  0  0  0  0
   -0.4339    1.4057    0.8414 H   0  0  0  0  0  0  0  0  0  0  0  0
  1  2  1  0
  2  3  1  0
  3  4  2  0
  4  5  1  0
  5  6  1  0
  6  7  1  0
  7  8  1  0
  8  9  2  0
  8 10  1  0
 10 11  1  0
  4 12  1  0
 12 13  2  0
 13  2  1  0
 11  5  1  0
  1 14  1  0
  1 15  1  0
  1 16  1  0
  3 17  1  0
  5 18  1  6
  6 19  1  0
  6 20  1  0
  7 21  1  0
 10 22  1  0
 10 23  1  0
 11 24  1  0
M  END
$$$$

     RDKit          3D

 24 25  0  0  0  0  0  0  0  0999 V2000
    4.2641    0.5703    0.0068 C   0  0  0  0  0  0  0  0  0  0  0  0
    2.8147    0.6253    0.1958 N   0  0  0  0  0  0  0  0  0  0  0  0
    1.8600   -0.0395   -0.4805 C   0  0  0  0  0  0  0  0  0  0  0  0
    0.6090    0.2994    0.0154 C   0  0  0  0  0  0  0  0  0  0  0  0
   -0.6794   -0.2267   -0.4734 C   0  0  1  0  0  0  0  0  0  0  0  0
   -1.1086   -1.3329    0.4484 C   0  0  0  0  0  0  0  0  0  0  0  0
   -2.5210   -1.6536    0.3210 N   0  0  0  0  0  0  0  0  0  0  0  0
   -3.4029   -0.5131    0.2610 C   0  0  0  0  0  0  0  0  0  0  0  0
   -4.6383   -0.6380    0.1652 O   0  0  0  0  0  0  0  0  0  0  0  0
   -2.7052    0.8107    0.3237 C   0  0  0  0  0  0  0  0  0  0  0  0
   -1.6538    0.8149   -0.6297 N   0  0  0  0  0  0  0  0  0  0  0  0
    0.8652    1.1800    0.9990 N   0  0  0  0  0  0  0  0  0  0  0  0
    2.1825    1.3644    1.0950 N   0  0  0  0  0  0  0  0  0  0  0  0
    4.6921    1.6049    0.0927 H   0  0  0  0  0  0  0  0  0  0  0  0
    4.5067    0.2444   -1.0414 H   0  0  0  0  0  0  0  0  0  0  0  0
    4.7503   -0.1311    0.6849 H   0  0  0  0  0  0  0  0  0  0  0  0
    2.0823   -0.7329   -1.2919 H   0  0  0  0  0  0  0  0  0  0  0  0
   -0.5211   -0.6796   -1.4741 H   0  0  0  0  0  0  0  0  0  0  0  0
   -0.5497   -2.2447    0.1486 H   0  0  0  0  0  0  0  0  0  0  0  0
   -0.8261   -1.0873    1.4901 H   0  0  0  0  0  0  0  0  0  0  0  0
   -2.8966   -2.6073    0.2746 H   0  0  0  0  0  0  0  0  0  0  0  0
   -3.4600    1.5618    0.0133 H   0  0  0  0  0  0  0  0  0  0  0  0
   -2.4090    1.0722    1.3556 H   0  0  0  0  0  0  0  0  0  0  0  0
   -1.2555    1.7385   -0.8473 H   0  0  0  0  0  0  0  0  0  0  0  0
  1  2  1  0
  2  3  1  0
  3  4  2  0
  4  5  1  0
  5  6  1  0
  6  7  1  0
  7  8  1  0
  8  9  2  0
  8 10  1  0
 10 11  1  0
  4 12  1  0
 12 13  2  0
 13  2  1  0
 11  5  1  0
  1 14  1  0
  1 15  1  0
  1 16  1  0
  3 17  1  0
  5 18  1  6
  6 19  1  0
  6 20  1  0
  7 21  1  0
 10 22  1  0
 10 23  1  0
 11 24  1  0
M  END
$$$$

     RDKit          3D

 24 25  0  0  0  0  0  0  0  0999 V2000
   -4.2017    0.2386    0.4994 C   0  0  0  0  0  0  0  0  0  0  0  0
   -2.8808   -0.3680    0.4654 N   0  0  0  0  0  0  0  0  0  0  0  0
   -1.7474    0.2084   -0.0261 C   0  0  0  0  0  0  0  0  0  0  0  0
   -0.6964   -0.6701    0.1136 C   0  0  0  0  0  0  0  0  0  0  0  0
    0.7064   -0.4203   -0.2993 C   0  0  1  0  0  0  0  0  0  0  0  0
    0.8999    1.0511   -0.5850 C   0  0  0  0  0  0  0  0  0  0  0  0
    2.3032    1.4211   -0.5153 N   0  0  0  0  0  0  0  0  0  0  0  0
    3.3419    0.4888   -0.2519 C   0  0  0  0  0  0  0  0  0  0  0  0
    4.5384    0.8241   -0.2946 O   0  0  0  0  0  0  0  0  0  0  0  0
    2.9504   -0.9068    0.0780 C   0  0  0  0  0  0  0  0  0  0  0  0
    1.6537   -0.8381    0.7340 N   0  0  0  0  0  0  0  0  0  0  0  0
   -1.2228   -1.7649    0.6905 N   0  0  0  0  0  0  0  0  0  0  0  0
   -2.5089   -1.5571    0.8850 N   0  0  0  0  0  0  0  0  0  0  0  0
   -4.4228    0.7491    1.4414 H   0  0  0  0  0  0  0  0  0  0  0  0
   -4.9632   -0.5394    0.2368 H   0  0  0  0  0  0  0  0  0  0  0  0
   -4.2760    0.9877   -0.3425 H   0  0  0  0  0  0  0  0  0  0  0  0
   -1.7164    1.1917   -0.4473 H   0  0  0  0  0  0  0  0  0  0  0  0
    0.9837   -0.9930   -1.2109 H   0  0  0  0  0  0  0  0  0  0  0  0
    0.4973    1.2444   -1.6005 H   0  0  0  0  0  0  0  0  0  0  0  0
    0.3526    1.6570    0.1597 H   0  0  0  0  0  0  0  0  0  0  0  0
    2.5192    2.4332   -0.6724 H   0  0  0  0  0  0  0  0  0  0  0  0
    2.7975   -1.4448   -0.8792 H   0  0  0  0  0  0  0  0  0  0  0  0
    3.7092   -1.4125    0.7082 H   0  0  0  0  0  0  0  0  0  0  0  0
    1.3829   -1.7635    1.1130 H   0  0  0  0  0  0  0  0  0  0  0  0
  1  2  1  0
  2  3  1  0
  3  4  2  0
  4  5  1  0
  5  6  1  0
  6  7  1  0
  7  8  1  0
  8  9  2  0
  8 10  1  0
 10 11  1  0
  4 12  1  0
 12 13  2  0
 13  2  1  0
 11  5  1  0
  1 14  1  0
  1 15  1  0
  1 16  1  0
  3 17  1  0
  5 18  1  6
  6 19  1  0
  6 20  1  0
  7 21  1  0
 10 22  1  0
 10 23  1  0
 11 24  1  0
M  END
$$$$

     RDKit          3D

 24 25  0  0  0  0  0  0  0  0999 V2000
   -4.2407    0.1705    0.2561 C   0  0  0  0  0  0  0  0  0  0  0  0
   -2.8572    0.0082    0.6883 N   0  0  0  0  0  0  0  0  0  0  0  0
   -1.7758    0.2917   -0.0851 C   0  0  0  0  0  0  0  0  0  0  0  0
   -0.6458    0.0246    0.6322 C   0  0  0  0  0  0  0  0  0  0  0  0
    0.7272    0.2016    0.1456 C   0  0  1  0  0  0  0  0  0  0  0  0
    1.7480   -0.5045    1.0415 C   0  0  0  0  0  0  0  0  0  0  0  0
    3.0579   -0.0114    0.5888 N   0  0  0  0  0  0  0  0  0  0  0  0
    3.1393    0.3370   -0.7894 C   0  0  0  0  0  0  0  0  0  0  0  0
    4.0673    1.1164   -1.1589 O   0  0  0  0  0  0  0  0  0  0  0  0
    2.1513   -0.2098   -1.7549 C   0  0  0  0  0  0  0  0  0  0  0  0
    0.8792   -0.3046   -1.1587 N   0  0  0  0  0  0  0  0  0  0  0  0
   -1.0591   -0.4207    1.8402 N   0  0  0  0  0  0  0  0  0  0  0  0
   -2.3919   -0.4189    1.8421 N   0  0  0  0  0  0  0  0  0  0  0  0
   -4.7918    0.5474    1.1453 H   0  0  0  0  0  0  0  0  0  0  0  0
   -4.6624   -0.7717   -0.1439 H   0  0  0  0  0  0  0  0  0  0  0  0
   -4.2938    0.9944   -0.5006 H   0  0  0  0  0  0  0  0  0  0  0  0
   -1.8388    0.6664   -1.0991 H   0  0  0  0  0  0  0  0  0  0  0  0
    0.9964    1.2974    0.1525 H   0  0  0  0  0  0  0  0  0  0  0  0
    1.6840   -1.6014    0.7812 H   0  0  0  0  0  0  0  0  0  0  0  0
    1.5716   -0.3056    2.0987 H   0  0  0  0  0  0  0  0  0  0  0  0
    3.8574    0.0680    1.2533 H   0  0  0  0  0  0  0  0  0  0  0  0
    2.4936   -1.2284   -2.0473 H   0  0  0  0  0  0  0  0  0  0  0  0
    2.1158    0.4647   -2.6243 H   0  0  0  0  0  0  0  0  0  0  0  0
    0.0683   -0.4111   -1.7461 H   0  0  0  0  0  0  0  0  0  0  0  0
  1  2  1  0
  2  3  1  0
  3  4  2  0
  4  5  1  0
  5  6  1  0
  6  7  1  0
  7  8  1  0
  8  9  2  0
  8 10  1  0
 10 11  1  0
  4 12  1  0
 12 13  2  0
 13  2  1  0
 11  5  1  0
  1 14  1  0
  1 15  1  0
  1 16  1  0
  3 17  1  0
  5 18  1  6
  6 19  1  0
  6 20  1  0
  7 21  1  0
 10 22  1  0
 10 23  1  0
 11 24  1  0
M  END
$$$$

     RDKit          3D

 24 25  0  0  0  0  0  0  0  0999 V2000
    4.1572    0.1797    0.5892 C   0  0  0  0  0  0  0  0  0  0  0  0
    2.8400    0.5293    0.0612 N   0  0  0  0  0  0  0  0  0  0  0  0
    1.7524   -0.2566    0.1474 C   0  0  0  0  0  0  0  0  0  0  0  0
    0.7195    0.3937   -0.4493 C   0  0  0  0  0  0  0  0  0  0  0  0
   -0.7108   -0.0306   -0.6320 C   0  0  1  0  0  0  0  0  0  0  0  0
   -1.0033   -1.3137    0.0346 C   0  0  0  0  0  0  0  0  0  0  0  0
   -2.3188   -1.4070    0.6222 N   0  0  0  0  0  0  0  0  0  0  0  0
   -3.2306   -0.3356    0.6931 C   0  0  0  0  0  0  0  0  0  0  0  0
   -4.2768   -0.4779    1.3709 O   0  0  0  0  0  0  0  0  0  0  0  0
   -2.8753    0.8943   -0.0510 C   0  0  0  0  0  0  0  0  0  0  0  0
   -1.5220    1.0703   -0.3008 N   0  0  0  0  0  0  0  0  0  0  0  0
    1.2064    1.5691   -0.8881 N   0  0  0  0  0  0  0  0  0  0  0  0
    2.4932    1.6297   -0.5677 N   0  0  0  0  0  0  0  0  0  0  0  0
    4.6013    1.1347    0.9743 H   0  0  0  0  0  0  0  0  0  0  0  0
    4.1034   -0.5658    1.3850 H   0  0  0  0  0  0  0  0  0  0  0  0
    4.7920   -0.1340   -0.2569 H   0  0  0  0  0  0  0  0  0  0  0  0
    1.7076   -1.2146    0.6007 H   0  0  0  0  0  0  0  0  0  0  0  0
   -0.8046   -0.1934   -1.7483 H   0  0  0  0  0  0  0  0  0  0  0  0
   -0.9267   -2.1805   -0.6866 H   0  0  0  0  0  0  0  0  0  0  0  0
   -0.2854   -1.5726    0.8506 H   0  0  0  0  0  0  0  0  0  0  0  0
   -2.5924   -2.3371    1.0140 H   0  0  0  0  0  0  0  0  0  0  0  0
   -3.4684    0.8896   -0.9846 H   0  0  0  0  0  0  0  0  0  0  0  0
   -3.2698    1.7548    0.5491 H   0  0  0  0  0  0  0  0  0  0  0  0
   -1.0880    1.9742   -0.1696 H   0  0  0  0  0  0  0  0  0  0  0  0
  1  2  1  0
  2  3  1  0
  3  4  2  0
  4  5  1  0
  5  6  1  0
  6  7  1  0
  7  8  1  0
  8  9  2  0
  8 10  1  0
 10 11  1  0
  4 12  1  0
 12 13  2  0
 13  2  1  0
 11  5  1  0
  1 14  1  0
  1 15  1  0
  1 16  1  0
  3 17  1  0
  5 18  1  6
  6 19  1  0
  6 20  1  0
  7 21  1  0
 10 22  1  0
 10 23  1  0
 11 24  1  0
M  END
$$$$

     RDKit          3D

 24 25  0  0  0  0  0  0  0  0999 V2000
    4.0707    0.5637    0.3073 C   0  0  0  0  0  0  0  0  0  0  0  0
    2.8495   -0.2215    0.0765 N   0  0  0  0  0  0  0  0  0  0  0  0
    1.5931    0.2563    0.0029 C   0  0  0  0  0  0  0  0  0  0  0  0
    0.7297   -0.7877   -0.2225 C   0  0  0  0  0  0  0  0  0  0  0  0
   -0.7552   -0.7423   -0.3757 C   0  0  1  0  0  0  0  0  0  0  0  0
   -1.3522   -0.7141    0.9976 C   0  0  0  0  0  0  0  0  0  0  0  0
   -2.7904   -0.5810    0.8485 N   0  0  0  0  0  0  0  0  0  0  0  0
   -3.2028    0.4861   -0.0313 C   0  0  0  0  0  0  0  0  0  0  0  0
   -4.3998    0.7213   -0.2383 O   0  0  0  0  0  0  0  0  0  0  0  0
   -2.0826    1.2522   -0.6463 C   0  0  0  0  0  0  0  0  0  0  0  0
   -1.1724    0.3167   -1.2317 N   0  0  0  0  0  0  0  0  0  0  0  0
    1.4981   -1.8878   -0.2804 N   0  0  0  0  0  0  0  0  0  0  0  0
    2.7556   -1.5328   -0.1006 N   0  0  0  0  0  0  0  0  0  0  0  0
    4.0608    1.4387   -0.3542 H   0  0  0  0  0  0  0  0  0  0  0  0
    4.9264   -0.1126    0.1074 H   0  0  0  0  0  0  0  0  0  0  0  0
    4.1122    0.8575    1.3926 H   0  0  0  0  0  0  0  0  0  0  0  0
    1.2877    1.2914    0.1021 H   0  0  0  0  0  0  0  0  0  0  0  0
   -1.0816   -1.7139   -0.8485 H   0  0  0  0  0  0  0  0  0  0  0  0
   -1.0621   -1.6148    1.5422 H   0  0  0  0  0  0  0  0  0  0  0  0
   -0.9213    0.1689    1.5273 H   0  0  0  0  0  0  0  0  0  0  0  0
   -3.4834   -1.1955    1.3286 H   0  0  0  0  0  0  0  0  0  0  0  0
   -1.5437    1.8775    0.0958 H   0  0  0  0  0  0  0  0  0  0  0  0
   -2.5104    1.8763   -1.4489 H   0  0  0  0  0  0  0  0  0  0  0  0
   -1.5261   -0.0029   -2.1685 H   0  0  0  0  0  0  0  0  0  0  0  0
  1  2  1  0
  2  3  1  0
  3  4  2  0
  4  5  1  0
  5  6  1  0
  6  7  1  0
  7  8  1  0
  8  9  2  0
  8 10  1  0
 10 11  1  0
  4 12  1  0
 12 13  2  0
 13  2  1  0
 11  5  1  0
  1 14  1  0
  1 15  1  0
  1 16  1  0
  3 17  1  0
  5 18  1  6
  6 19  1  0
  6 20  1  0
  7 21  1  0
 10 22  1  0
 10 23  1  0
 11 24  1  0
M  END
$$$$

     RDKit          3D

 24 25  0  0  0  0  0  0  0  0999 V2000
    4.3062    0.2478   -0.2311 C   0  0  0  0  0  0  0  0  0  0  0  0
    2.8906    0.4552   -0.4890 N   0  0  0  0  0  0  0  0  0  0  0  0
    1.8689   -0.1395    0.1933 C   0  0  0  0  0  0  0  0  0  0  0  0
    0.6671    0.2951   -0.3271 C   0  0  0  0  0  0  0  0  0  0  0  0
   -0.7073   -0.0630    0.0749 C   0  0  1  0  0  0  0  0  0  0  0  0
   -1.3870    1.0378    0.8521 C   0  0  0  0  0  0  0  0  0  0  0  0
   -2.6824    0.5247    1.2566 N   0  0  0  0  0  0  0  0  0  0  0  0
   -3.1339   -0.6787    0.6478 C   0  0  0  0  0  0  0  0  0  0  0  0
   -3.9987   -1.3761    1.2308 O   0  0  0  0  0  0  0  0  0  0  0  0
   -2.6305   -1.1662   -0.6636 C   0  0  0  0  0  0  0  0  0  0  0  0
   -1.5282   -0.3350   -1.0889 N   0  0  0  0  0  0  0  0  0  0  0  0
    0.9946    1.1463   -1.3164 N   0  0  0  0  0  0  0  0  0  0  0  0
    2.3068    1.2190   -1.3865 N   0  0  0  0  0  0  0  0  0  0  0  0
    4.7163    0.9767    0.4963 H   0  0  0  0  0  0  0  0  0  0  0  0
    4.8681    0.2722   -1.2093 H   0  0  0  0  0  0  0  0  0  0  0  0
    4.5008   -0.7659    0.1837 H   0  0  0  0  0  0  0  0  0  0  0  0
    1.9552   -0.8344    1.0048 H   0  0  0  0  0  0  0  0  0  0  0  0
   -0.7428   -0.9771    0.7031 H   0  0  0  0  0  0  0  0  0  0  0  0
   -1.5537    1.9155    0.1803 H   0  0  0  0  0  0  0  0  0  0  0  0
   -0.7853    1.3467    1.7432 H   0  0  0  0  0  0  0  0  0  0  0  0
   -3.2735    1.0006    1.9609 H   0  0  0  0  0  0  0  0  0  0  0  0
   -2.2223   -2.2065   -0.5004 H   0  0  0  0  0  0  0  0  0  0  0  0
   -3.4296   -1.1773   -1.4350 H   0  0  0  0  0  0  0  0  0  0  0  0
   -0.9996   -0.7178   -1.8805 H   0  0  0  0  0  0  0  0  0  0  0  0
  1  2  1  0
  2  3  1  0
  3  4  2  0
  4  5  1  0
  5  6  1  0
  6  7  1  0
  7  8  1  0
  8  9  2  0
  8 10  1  0
 10 11  1  0
  4 12  1  0
 12 13  2  0
 13  2  1  0
 11  5  1  0
  1 14  1  0
  1 15  1  0
  1 16  1  0
  3 17  1  0
  5 18  1  1
  6 19  1  0
  6 20  1  0
  7 21  1  0
 10 22  1  0
 10 23  1  0
 11 24  1  0
M  END
$$$$

     RDKit          3D

 24 25  0  0  0  0  0  0  0  0999 V2000
    4.0336   -0.7875   -0.1543 C   0  0  0  0  0  0  0  0  0  0  0  0
    2.7395   -0.1333   -0.3417 N   0  0  0  0  0  0  0  0  0  0  0  0
    1.7236   -0.2432    0.5120 C   0  0  0  0  0  0  0  0  0  0  0  0
    0.6831    0.5119   -0.0064 C   0  0  0  0  0  0  0  0  0  0  0  0
   -0.6662    0.7007    0.5911 C   0  0  1  0  0  0  0  0  0  0  0  0
   -1.5034    1.4669   -0.3480 C   0  0  0  0  0  0  0  0  0  0  0  0
   -2.3829    0.6808   -1.1703 N   0  0  0  0  0  0  0  0  0  0  0  0
   -3.0087   -0.4267   -0.5354 C   0  0  0  0  0  0  0  0  0  0  0  0
   -4.0209   -0.9708   -1.0442 O   0  0  0  0  0  0  0  0  0  0  0  0
   -2.4641   -0.9275    0.7154 C   0  0  0  0  0  0  0  0  0  0  0  0
   -1.1428   -0.5487    1.0289 N   0  0  0  0  0  0  0  0  0  0  0  0
    1.1123    1.0479   -1.1528 N   0  0  0  0  0  0  0  0  0  0  0  0
    2.3626    0.6420   -1.3346 N   0  0  0  0  0  0  0  0  0  0  0  0
    4.0220   -1.7251   -0.7403 H   0  0  0  0  0  0  0  0  0  0  0  0
    4.2087   -1.0196    0.9149 H   0  0  0  0  0  0  0  0  0  0  0  0
    4.8552   -0.0990   -0.4540 H   0  0  0  0  0  0  0  0  0  0  0  0
    1.6409   -0.7858    1.4380 H   0  0  0  0  0  0  0  0  0  0  0  0
   -0.4899    1.3410    1.5069 H   0  0  0  0  0  0  0  0  0  0  0  0
   -2.1341    2.2136    0.2165 H   0  0  0  0  0  0  0  0  0  0  0  0
   -0.8943    2.1020   -1.0563 H   0  0  0  0  0  0  0  0  0  0  0  0
   -2.5618    0.9058   -2.1944 H   0  0  0  0  0  0  0  0  0  0  0  0
   -2.5344   -2.0356    0.7138 H   0  0  0  0  0  0  0  0  0  0  0  0
   -3.1327   -0.5946    1.5606 H   0  0  0  0  0  0  0  0  0  0  0  0
   -0.4453   -1.3151    1.0295 H   0  0  0  0  0  0  0  0  0  0  0  0
  1  2  1  0
  2  3  1  0
  3  4  2  0
  4  5  1  0
  5  6  1  0
  6  7  1  0
  7  8  1  0
  8  9  2  0
  8 10  1  0
 10 11  1  0
  4 12  1  0
 12 13  2  0
 13  2  1  0
 11  5  1  0
  1 14  1  0
  1 15  1  0
  1 16  1  0
  3 17  1  0
  5 18  1  1
  6 19  1  0
  6 20  1  0
  7 21  1  0
 10 22  1  0
 10 23  1  0
 11 24  1  0
M  END
$$$$
