
     RDKit          3D

 24 24  0  0  0  0  0  0  0  0999 V2000
    4.0740    0.5586   -0.3498 C   0  0  0  0  0  0  0  0  0  0  0  0
    2.9168   -0.3325   -0.6160 C   0  0  0  0  0  0  0  0  0  0  0  0
    3.0011   -1.2976   -1.4413 O   0  0  0  0  0  0  0  0  0  0  0  0
    1.6872   -0.1040    0.0650 N   0  0  0  0  0  0  0  0  0  0  0  0
    0.5294   -0.9188   -0.1383 C   0  0  0  0  0  0  0  0  0  0  0  0
   -0.6404   -0.4501    0.6998 C   0  0  2  0  0  0  0  0  0  0  0  0
   -1.6795   -1.3639    0.4060 O   0  0  0  0  0  0  0  0  0  0  0  0
   -2.5153   -0.8028   -0.5565 C   0  0  0  0  0  0  0  0  0  0  0  0
   -3.3883    0.2023    0.2140 C   0  0  0  0  0  0  0  0  0  0  0  0
   -2.4572    1.3161    0.4647 N   0  0  0  0  0  0  0  0  0  0  0  0
   -1.0660    0.9339    0.3758 C   0  0  0  0  0  0  0  0  0  0  0  0
   -0.2274    1.7672    0.0274 O   0  0  0  0  0  0  0  0  0  0  0  0
    3.7745    1.6304   -0.4567 H   0  0  0  0  0  0  0  0  0  0  0  0
    4.8990    0.3611   -1.0443 H   0  0  0  0  0  0  0  0  0  0  0  0
    4.3937    0.4039    0.7020 H   0  0  0  0  0  0  0  0  0  0  0  0
    1.6726    0.6936    0.7335 H   0  0  0  0  0  0  0  0  0  0  0  0
    0.2341   -0.9054   -1.2157 H   0  0  0  0  0  0  0  0  0  0  0  0
    0.8096   -1.9580    0.1379 H   0  0  0  0  0  0  0  0  0  0  0  0
   -0.4002   -0.5150    1.7728 H   0  0  0  0  0  0  0  0  0  0  0  0
   -1.8670   -0.2262   -1.2803 H   0  0  0  0  0  0  0  0  0  0  0  0
   -3.1235   -1.5523   -1.0782 H   0  0  0  0  0  0  0  0  0  0  0  0
   -4.2598    0.5119   -0.3551 H   0  0  0  0  0  0  0  0  0  0  0  0
   -3.6197   -0.2234    1.2116 H   0  0  0  0  0  0  0  0  0  0  0  0
   -2.7475    2.2710    0.6810 H   0  0  0  0  0  0  0  0  0  0  0  0
  1  2  1  0
  2  3  2  0
  2  4  1  0
  4  5  1  0
  5  6  1  0
  6  7  1  0
  7  8  1  0
  8  9  1  0
  9 10  1  0
 10 11  1  0
 11 12  2  0
 11  6  1  0
  1 13  1  0
  1 14  1  0
  1 15  1  0
  4 16  1  0
  5 17  1  0
  5 18  1  0
  6 19  1  1
  8 20  1  0
  8 21  1  0
  9 22  1  0
  9 23  1  0
 10 24  1  0
M  END
$$$$

     RDKit          3D

 24 24  0  0  0  0  0  0  0  0999 V2000
    4.0059   -0.2981   -0.1812 C   0  0  0  0  0  0  0  0  0  0  0  0
    2.7648   -0.0076    0.5668 C   0  0  0  0  0  0  0  0  0  0  0  0
    2.7773   -0.0915    1.8343 O   0  0  0  0  0  0  0  0  0  0  0  0
    1.5676    0.3598   -0.0855 N   0  0  0  0  0  0  0  0  0  0  0  0
    0.3610    0.6412    0.6579 C   0  0  0  0  0  0  0  0  0  0  0  0
   -0.7809    1.0098   -0.2658 C   0  0  2  0  0  0  0  0  0  0  0  0
   -1.9394    1.2827    0.4375 O   0  0  0  0  0  0  0  0  0  0  0  0
   -2.5459    0.1662    0.9656 C   0  0  0  0  0  0  0  0  0  0  0  0
   -3.0862   -0.6799   -0.1650 C   0  0  0  0  0  0  0  0  0  0  0  0
   -1.9585   -1.0640   -0.9931 N   0  0  0  0  0  0  0  0  0  0  0  0
   -0.9861   -0.0596   -1.2799 C   0  0  0  0  0  0  0  0  0  0  0  0
   -0.3309   -0.0899   -2.3595 O   0  0  0  0  0  0  0  0  0  0  0  0
    4.7921    0.4240    0.1189 H   0  0  0  0  0  0  0  0  0  0  0  0
    4.3043   -1.3494    0.0537 H   0  0  0  0  0  0  0  0  0  0  0  0
    3.8070   -0.2765   -1.2696 H   0  0  0  0  0  0  0  0  0  0  0  0
    1.5814    0.4226   -1.1263 H   0  0  0  0  0  0  0  0  0  0  0  0
    0.1315   -0.2433    1.2704 H   0  0  0  0  0  0  0  0  0  0  0  0
    0.5604    1.4838    1.3493 H   0  0  0  0  0  0  0  0  0  0  0  0
   -0.4957    1.9305   -0.8144 H   0  0  0  0  0  0  0  0  0  0  0  0
   -3.4287    0.5136    1.5461 H   0  0  0  0  0  0  0  0  0  0  0  0
   -1.8714   -0.4380    1.5969 H   0  0  0  0  0  0  0  0  0  0  0  0
   -3.8085   -0.0491   -0.7351 H   0  0  0  0  0  0  0  0  0  0  0  0
   -3.5945   -1.5649    0.2606 H   0  0  0  0  0  0  0  0  0  0  0  0
   -1.8265   -2.0225   -1.3826 H   0  0  0  0  0  0  0  0  0  0  0  0
  1  2  1  0
  2  3  2  0
  2  4  1  0
  4  5  1  0
  5  6  1  0
  6  7  1  0
  7  8  1  0
  8  9  1  0
  9 10  1  0
 10 11  1  0
 11 12  2  0
 11  6  1  0
  1 13  1  0
  1 14  1  0
  1 15  1  0
  4 16  1  0
  5 17  1  0
  5 18  1  0
  6 19  1  6
  8 20  1  0
  8 21  1  0
  9 22  1  0
  9 23  1  0
 10 24  1  0
M  END
$$$$

     RDKit          3D

 24 24  0  0  0  0  0  0  0  0999 V2000
    4.1864    0.6589    0.7650 C   0  0  0  0  0  0  0  0  0  0  0  0
    3.0974    0.1282   -0.0806 C   0  0  0  0  0  0  0  0  0  0  0  0
    3.4281   -0.3133   -1.2265 O   0  0  0  0  0  0  0  0  0  0  0  0
    1.7311    0.0995    0.3416 N   0  0  0  0  0  0  0  0  0  0  0  0
    0.7784   -0.4492   -0.5947 C   0  0  0  0  0  0  0  0  0  0  0  0
   -0.6232   -0.4494   -0.0936 C   0  0  2  0  0  0  0  0  0  0  0  0
   -1.4199   -1.0077   -1.1081 O   0  0  0  0  0  0  0  0  0  0  0  0
   -2.7070   -1.2689   -0.6592 C   0  0  0  0  0  0  0  0  0  0  0  0
   -3.4430    0.0208   -0.3881 C   0  0  0  0  0  0  0  0  0  0  0  0
   -2.5805    1.0533    0.1403 N   0  0  0  0  0  0  0  0  0  0  0  0
   -1.1462    0.9098    0.1655 C   0  0  0  0  0  0  0  0  0  0  0  0
   -0.4290    1.9111    0.3984 O   0  0  0  0  0  0  0  0  0  0  0  0
    3.8420    1.3823    1.5190 H   0  0  0  0  0  0  0  0  0  0  0  0
    4.9538    1.1277    0.1086 H   0  0  0  0  0  0  0  0  0  0  0  0
    4.6942   -0.2297    1.2336 H   0  0  0  0  0  0  0  0  0  0  0  0
    1.5176    0.4671    1.2737 H   0  0  0  0  0  0  0  0  0  0  0  0
    0.8134    0.1208   -1.5418 H   0  0  0  0  0  0  0  0  0  0  0  0
    1.0799   -1.4956   -0.7867 H   0  0  0  0  0  0  0  0  0  0  0  0
   -0.7525   -1.0596    0.8268 H   0  0  0  0  0  0  0  0  0  0  0  0
   -2.6245   -1.9112    0.2467 H   0  0  0  0  0  0  0  0  0  0  0  0
   -3.2353   -1.7884   -1.4801 H   0  0  0  0  0  0  0  0  0  0  0  0
   -3.8436    0.4072   -1.3553 H   0  0  0  0  0  0  0  0  0  0  0  0
   -4.2819   -0.2238    0.2958 H   0  0  0  0  0  0  0  0  0  0  0  0
   -3.0359    1.9102    0.5045 H   0  0  0  0  0  0  0  0  0  0  0  0
  1  2  1  0
  2  3  2  0
  2  4  1  0
  4  5  1  0
  5  6  1  0
  6  7  1  0
  7  8  1  0
  8  9  1  0
  9 10  1  0
 10 11  1  0
 11 12  2  0
 11  6  1  0
  1 13  1  0
  1 14  1  0
  1 15  1  0
  4 16  1  0
  5 17  1  0
  5 18  1  0
  6 19  1  1
  8 20  1  0
  8 21  1  0
  9 22  1  0
  9 23  1  0
 10 24  1  0
M  END
$$$$

     RDKit          3D

 24 24  0  0  0  0  0  0  0  0999 V2000
    4.1503    0.7520    0.6145 C   0  0  0  0  0  0  0  0  0  0  0  0
    3.0812   -0.2534    0.3656 C   0  0  0  0  0  0  0  0  0  0  0  0
    3.4591   -1.4596    0.1778 O   0  0  0  0  0  0  0  0  0  0  0  0
    1.7157    0.1071    0.3382 N   0  0  0  0  0  0  0  0  0  0  0  0
    0.7236   -0.8734    0.0989 C   0  0  0  0  0  0  0  0  0  0  0  0
   -0.6824   -0.3896    0.0905 C   0  0  2  0  0  0  0  0  0  0  0  0
   -1.6116   -1.3988   -0.1498 O   0  0  0  0  0  0  0  0  0  0  0  0
   -2.8560   -1.0191    0.2806 C   0  0  0  0  0  0  0  0  0  0  0  0
   -3.2911    0.3378   -0.1373 C   0  0  0  0  0  0  0  0  0  0  0  0
   -2.3486    0.9813   -1.0604 N   0  0  0  0  0  0  0  0  0  0  0  0
   -0.9690    0.7120   -0.8233 C   0  0  0  0  0  0  0  0  0  0  0  0
   -0.1351    1.4368   -1.4138 O   0  0  0  0  0  0  0  0  0  0  0  0
    4.4378    1.2327   -0.3518 H   0  0  0  0  0  0  0  0  0  0  0  0
    5.0682    0.2953    1.0327 H   0  0  0  0  0  0  0  0  0  0  0  0
    3.8173    1.5112    1.3663 H   0  0  0  0  0  0  0  0  0  0  0  0
    1.4596    1.0949    0.4955 H   0  0  0  0  0  0  0  0  0  0  0  0
    0.9065   -1.3746   -0.8970 H   0  0  0  0  0  0  0  0  0  0  0  0
    0.8419   -1.6857    0.8452 H   0  0  0  0  0  0  0  0  0  0  0  0
   -0.9108   -0.0193    1.1341 H   0  0  0  0  0  0  0  0  0  0  0  0
   -3.5779   -1.8222   -0.0229 H   0  0  0  0  0  0  0  0  0  0  0  0
   -2.8520   -1.0475    1.4086 H   0  0  0  0  0  0  0  0  0  0  0  0
   -3.4404    1.0478    0.7268 H   0  0  0  0  0  0  0  0  0  0  0  0
   -4.2995    0.2454   -0.6289 H   0  0  0  0  0  0  0  0  0  0  0  0
   -2.6867    1.5889   -1.8287 H   0  0  0  0  0  0  0  0  0  0  0  0
  1  2  1  0
  2  3  2  0
  2  4  1  0
  4  5  1  0
  5  6  1  0
  6  7  1  0
  7  8  1  0
  8  9  1  0
  9 10  1  0
 10 11  1  0
 11 12  2  0
 11  6  1  0
  1 13  1  0
  1 14  1  0
  1 15  1  0
  4 16  1  0
  5 17  1  0
  5 18  1  0
  6 19  1  1
  8 20  1  0
  8 21  1  0
  9 22  1  0
  9 23  1  0
 10 24  1  0
M  END
$$$$

     RDKit          3D

 24 24  0  0  0  0  0  0  0  0999 V2000
    3.3923    0.5871    0.8194 C   0  0  0  0  0  0  0  0  0  0  0  0
    2.2051    0.5418   -0.1078 C   0  0  0  0  0  0  0  0  0  0  0  0
    1.6553    1.6026   -0.4933 O   0  0  0  0  0  0  0  0  0  0  0  0
    1.7529   -0.7357   -0.5120 N   0  0  0  0  0  0  0  0  0  0  0  0
    0.6470   -0.9518   -1.3761 C   0  0  0  0  0  0  0  0  0  0  0  0
   -0.6864   -0.4718   -0.9139 C   0  0  2  0  0  0  0  0  0  0  0  0
   -0.7930    0.8830   -0.6789 O   0  0  0  0  0  0  0  0  0  0  0  0
   -2.1289    1.1580   -0.3871 C   0  0  0  0  0  0  0  0  0  0  0  0
   -2.3992    0.8120    1.0651 C   0  0  0  0  0  0  0  0  0  0  0  0
   -2.0042   -0.5939    1.2170 N   0  0  0  0  0  0  0  0  0  0  0  0
   -1.2162   -1.2357    0.2329 C   0  0  0  0  0  0  0  0  0  0  0  0
   -0.9621   -2.4530    0.3255 O   0  0  0  0  0  0  0  0  0  0  0  0
    3.0793    0.1226    1.7957 H   0  0  0  0  0  0  0  0  0  0  0  0
    3.7274    1.6180    0.9901 H   0  0  0  0  0  0  0  0  0  0  0  0
    4.2250   -0.0260    0.4180 H   0  0  0  0  0  0  0  0  0  0  0  0
    2.2948   -1.5688   -0.1286 H   0  0  0  0  0  0  0  0  0  0  0  0
    0.5501   -2.0634   -1.5506 H   0  0  0  0  0  0  0  0  0  0  0  0
    0.8716   -0.4851   -2.3684 H   0  0  0  0  0  0  0  0  0  0  0  0
   -1.3943   -0.6644   -1.7828 H   0  0  0  0  0  0  0  0  0  0  0  0
   -2.4084    2.1791   -0.6414 H   0  0  0  0  0  0  0  0  0  0  0  0
   -2.7875    0.4834   -0.9934 H   0  0  0  0  0  0  0  0  0  0  0  0
   -3.4899    0.9439    1.2295 H   0  0  0  0  0  0  0  0  0  0  0  0
   -1.7972    1.3924    1.7670 H   0  0  0  0  0  0  0  0  0  0  0  0
   -2.3336   -1.0743    2.0742 H   0  0  0  0  0  0  0  0  0  0  0  0
  1  2  1  0
  2  3  2  0
  2  4  1  0
  4  5  1  0
  5  6  1  0
  6  7  1  0
  7  8  1  0
  8  9  1  0
  9 10  1  0
 10 11  1  0
 11 12  2  0
 11  6  1  0
  1 13  1  0
  1 14  1  0
  1 15  1  0
  4 16  1  0
  5 17  1  0
  5 18  1  0
  6 19  1  6
  8 20  1  0
  8 21  1  0
  9 22  1  0
  9 23  1  0
 10 24  1  0
M  END
$$$$

     RDKit          3D

 24 24  0  0  0  0  0  0  0  0999 V2000
    3.8370    0.4522   -0.3897 C   0  0  0  0  0  0  0  0  0  0  0  0
    2.5849   -0.0959    0.2419 C   0  0  0  0  0  0  0  0  0  0  0  0
    2.4608   -0.0203    1.4708 O   0  0  0  0  0  0  0  0  0  0  0  0
    1.5637   -0.6868   -0.5352 N   0  0  0  0  0  0  0  0  0  0  0  0
    0.3505   -1.2240    0.0037 C   0  0  0  0  0  0  0  0  0  0  0  0
   -0.4276   -0.1690    0.7127 C   0  0  2  0  0  0  0  0  0  0  0  0
   -1.6192   -0.6480    1.2505 O   0  0  0  0  0  0  0  0  0  0  0  0
   -2.6012   -0.8143    0.2939 C   0  0  0  0  0  0  0  0  0  0  0  0
   -3.0912    0.5001   -0.2632 C   0  0  0  0  0  0  0  0  0  0  0  0
   -2.0237    1.4694   -0.2667 N   0  0  0  0  0  0  0  0  0  0  0  0
   -0.6865    1.0283   -0.1136 C   0  0  0  0  0  0  0  0  0  0  0  0
    0.2730    1.6412   -0.6693 O   0  0  0  0  0  0  0  0  0  0  0  0
    3.6264    0.8136   -1.4131 H   0  0  0  0  0  0  0  0  0  0  0  0
    4.6310   -0.2962   -0.4296 H   0  0  0  0  0  0  0  0  0  0  0  0
    4.1592    1.3225    0.2162 H   0  0  0  0  0  0  0  0  0  0  0  0
    1.7396   -0.7185   -1.5857 H   0  0  0  0  0  0  0  0  0  0  0  0
   -0.2485   -1.6850   -0.8068 H   0  0  0  0  0  0  0  0  0  0  0  0
    0.6412   -1.9901    0.7673 H   0  0  0  0  0  0  0  0  0  0  0  0
    0.1636    0.1922    1.5948 H   0  0  0  0  0  0  0  0  0  0  0  0
   -2.2550   -1.4515   -0.5436 H   0  0  0  0  0  0  0  0  0  0  0  0
   -3.4518   -1.3421    0.7896 H   0  0  0  0  0  0  0  0  0  0  0  0
   -3.9677    0.8722    0.3419 H   0  0  0  0  0  0  0  0  0  0  0  0
   -3.4199    0.3778   -1.3268 H   0  0  0  0  0  0  0  0  0  0  0  0
   -2.2385    2.4720   -0.3816 H   0  0  0  0  0  0  0  0  0  0  0  0
  1  2  1  0
  2  3  2  0
  2  4  1  0
  4  5  1  0
  5  6  1  0
  6  7  1  0
  7  8  1  0
  8  9  1  0
  9 10  1  0
 10 11  1  0
 11 12  2  0
 11  6  1  0
  1 13  1  0
  1 14  1  0
  1 15  1  0
  4 16  1  0
  5 17  1  0
  5 18  1  0
  6 19  1  1
  8 20  1  0
  8 21  1  0
  9 22  1  0
  9 23  1  0
 10 24  1  0
M  END
$$$$

     RDKit          3D

 24 24  0  0  0  0  0  0  0  0999 V2000
    3.6031   -0.8458    0.1858 C   0  0  0  0  0  0  0  0  0  0  0  0
    2.1457   -0.4958    0.2651 C   0  0  0  0  0  0  0  0  0  0  0  0
    1.3672   -1.4355    0.4785 O   0  0  0  0  0  0  0  0  0  0  0  0
    1.7241    0.8349    0.1013 N   0  0  0  0  0  0  0  0  0  0  0  0
    0.3938    1.2735    0.1349 C   0  0  0  0  0  0  0  0  0  0  0  0
   -0.5550    0.8508   -0.9315 C   0  0  2  0  0  0  0  0  0  0  0  0
   -1.7920    1.4401   -0.6135 O   0  0  0  0  0  0  0  0  0  0  0  0
   -2.5269    0.7285    0.2904 C   0  0  0  0  0  0  0  0  0  0  0  0
   -2.8215   -0.6998   -0.0861 C   0  0  0  0  0  0  0  0  0  0  0  0
   -1.5662   -1.3364   -0.4234 N   0  0  0  0  0  0  0  0  0  0  0  0
   -0.6629   -0.5617   -1.2047 C   0  0  0  0  0  0  0  0  0  0  0  0
    0.0203   -1.1178   -2.1185 O   0  0  0  0  0  0  0  0  0  0  0  0
    3.6731   -1.7879   -0.3807 H   0  0  0  0  0  0  0  0  0  0  0  0
    4.0844   -0.0527   -0.4286 H   0  0  0  0  0  0  0  0  0  0  0  0
    4.0523   -0.9697    1.1721 H   0  0  0  0  0  0  0  0  0  0  0  0
    2.5010    1.5437   -0.0605 H   0  0  0  0  0  0  0  0  0  0  0  0
   -0.0944    1.0210    1.1469 H   0  0  0  0  0  0  0  0  0  0  0  0
    0.3871    2.4189    0.1792 H   0  0  0  0  0  0  0  0  0  0  0  0
   -0.2407    1.4114   -1.8672 H   0  0  0  0  0  0  0  0  0  0  0  0
   -2.0812    0.7279    1.3054 H   0  0  0  0  0  0  0  0  0  0  0  0
   -3.5081    1.2828    0.4187 H   0  0  0  0  0  0  0  0  0  0  0  0
   -3.4891   -0.7337   -0.9825 H   0  0  0  0  0  0  0  0  0  0  0  0
   -3.3179   -1.1832    0.7790 H   0  0  0  0  0  0  0  0  0  0  0  0
   -1.2965   -2.3135   -0.1331 H   0  0  0  0  0  0  0  0  0  0  0  0
  1  2  1  0
  2  3  2  0
  2  4  1  0
  4  5  1  0
  5  6  1  0
  6  7  1  0
  7  8  1  0
  8  9  1  0
  9 10  1  0
 10 11  1  0
 11 12  2  0
 11  6  1  0
  1 13  1  0
  1 14  1  0
  1 15  1  0
  4 16  1  0
  5 17  1  0
  5 18  1  0
  6 19  1  6
  8 20  1  0
  8 21  1  0
  9 22  1  0
  9 23  1  0
 10 24  1  0
M  END
$$$$

     RDKit          3D

 24 24  0  0  0  0  0  0  0  0999 V2000
    3.7331    0.5488    0.5568 C   0  0  0  0  0  0  0  0  0  0  0  0
    2.2637    0.2585    0.4733 C   0  0  0  0  0  0  0  0  0  0  0  0
    1.5158    1.0586    1.0623 O   0  0  0  0  0  0  0  0  0  0  0  0
    1.7568   -0.8519   -0.2285 N   0  0  0  0  0  0  0  0  0  0  0  0
    0.3663   -1.1818   -0.3503 C   0  0  0  0  0  0  0  0  0  0  0  0
   -0.4839   -0.1610   -1.0366 C   0  0  2  0  0  0  0  0  0  0  0  0
   -0.5442    1.0657   -0.4640 O   0  0  0  0  0  0  0  0  0  0  0  0
   -1.6166    1.4011    0.2779 C   0  0  0  0  0  0  0  0  0  0  0  0
   -2.4933    0.2836    0.7406 C   0  0  0  0  0  0  0  0  0  0  0  0
   -2.7969   -0.6679   -0.3111 N   0  0  0  0  0  0  0  0  0  0  0  0
   -1.8344   -0.7177   -1.3850 C   0  0  0  0  0  0  0  0  0  0  0  0
   -2.1395   -1.1891   -2.4871 O   0  0  0  0  0  0  0  0  0  0  0  0
    4.2889   -0.3405    0.2293 H   0  0  0  0  0  0  0  0  0  0  0  0
    4.0089    0.8258    1.5943 H   0  0  0  0  0  0  0  0  0  0  0  0
    3.9426    1.3843   -0.1535 H   0  0  0  0  0  0  0  0  0  0  0  0
    2.4997   -1.4715   -0.6920 H   0  0  0  0  0  0  0  0  0  0  0  0
   -0.0195   -1.3235    0.6852 H   0  0  0  0  0  0  0  0  0  0  0  0
    0.2638   -2.1423   -0.9044 H   0  0  0  0  0  0  0  0  0  0  0  0
   -0.0025   -0.0092   -2.0542 H   0  0  0  0  0  0  0  0  0  0  0  0
   -2.2413    2.1306   -0.2867 H   0  0  0  0  0  0  0  0  0  0  0  0
   -1.2557    1.9334    1.2044 H   0  0  0  0  0  0  0  0  0  0  0  0
   -3.4807    0.7092    1.0590 H   0  0  0  0  0  0  0  0  0  0  0  0
   -2.0962   -0.2672    1.6058 H   0  0  0  0  0  0  0  0  0  0  0  0
   -3.6348   -1.2758   -0.3124 H   0  0  0  0  0  0  0  0  0  0  0  0
  1  2  1  0
  2  3  2  0
  2  4  1  0
  4  5  1  0
  5  6  1  0
  6  7  1  0
  7  8  1  0
  8  9  1  0
  9 10  1  0
 10 11  1  0
 11 12  2  0
 11  6  1  0
  1 13  1  0
  1 14  1  0
  1 15  1  0
  4 16  1  0
  5 17  1  0
  5 18  1  0
  6 19  1  6
  8 20  1  0
  8 21  1  0
  9 22  1  0
  9 23  1  0
 10 24  1  0
M  END
$$$$
