
     RDKit          3D

 32 31  0  0  0  0  0  0  0  0999 V2000
    4.3048   -0.1041    0.3341 C   0  0  0  0  0  0  0  0  0  0  0  0
    3.0353   -0.8302    0.4092 N   0  0  0  0  0  0  0  0  0  0  0  0
    1.9210    0.0991    0.2500 C   0  0  0  0  0  0  0  0  0  0  0  0
    0.5747   -0.5640    0.3401 C   0  0  2  0  0  0  0  0  0  0  0  0
    0.4781   -1.6013   -0.7571 C   0  0  0  0  0  0  0  0  0  0  0  0
   -0.4403    0.4097    0.1224 N   0  0  0  0  0  0  0  0  0  0  0  0
   -0.4879    1.4576    1.0900 C   0  0  0  0  0  0  0  0  0  0  0  0
   -1.6878   -0.0920   -0.3196 C   0  0  2  0  0  0  0  0  0  0  0  0
   -2.7174    0.9740   -0.5968 C   0  0  0  0  0  0  0  0  0  0  0  0
   -2.2846    1.8988   -1.6249 N   0  0  0  0  0  0  0  0  0  0  0  0
   -2.3296   -1.0684    0.5841 C   0  0  0  0  0  0  0  0  0  0  0  0
   -1.8019   -1.4035    1.6642 O   0  0  0  0  0  0  0  0  0  0  0  0
   -3.5413   -1.6304    0.2381 O   0  0  0  0  0  0  0  0  0  0  0  0
    4.0696    0.8999   -0.0726 H   0  0  0  0  0  0  0  0  0  0  0  0
    5.0253   -0.5822   -0.3568 H   0  0  0  0  0  0  0  0  0  0  0  0
    4.7375    0.0532    1.3448 H   0  0  0  0  0  0  0  0  0  0  0  0
    3.0544   -1.4632   -0.4456 H   0  0  0  0  0  0  0  0  0  0  0  0
    2.0859    0.8778    1.0148 H   0  0  0  0  0  0  0  0  0  0  0  0
    2.0158    0.6075   -0.7480 H   0  0  0  0  0  0  0  0  0  0  0  0
    0.4749   -1.1133    1.2994 H   0  0  0  0  0  0  0  0  0  0  0  0
   -0.4755   -2.1805   -0.6127 H   0  0  0  0  0  0  0  0  0  0  0  0
    1.2883   -2.3577   -0.7304 H   0  0  0  0  0  0  0  0  0  0  0  0
    0.3917   -1.1414   -1.7711 H   0  0  0  0  0  0  0  0  0  0  0  0
   -1.3129    2.1432    0.8841 H   0  0  0  0  0  0  0  0  0  0  0  0
    0.4403    2.0589    1.0026 H   0  0  0  0  0  0  0  0  0  0  0  0
   -0.6418    1.0624    2.1194 H   0  0  0  0  0  0  0  0  0  0  0  0
   -1.5328   -0.6073   -1.3021 H   0  0  0  0  0  0  0  0  0  0  0  0
   -3.5930    0.4211   -1.0577 H   0  0  0  0  0  0  0  0  0  0  0  0
   -3.1262    1.4472    0.3014 H   0  0  0  0  0  0  0  0  0  0  0  0
   -2.3872    2.8870   -1.3831 H   0  0  0  0  0  0  0  0  0  0  0  0
   -1.4299    1.6216   -2.1163 H   0  0  0  0  0  0  0  0  0  0  0  0
   -4.1075   -2.1793    0.8961 H   0  0  0  0  0  0  0  0  0  0  0  0
  1  2  1  0
  2  3  1  0
  3  4  1  0
  4  5  1  0
  4  6  1  0
  6  7  1  0
  6  8  1  0
  8  9  1  0
  9 10  1  0
  8 11  1  0
 11 12  2  0
 11 13  1  0
  1 14  1  0
  1 15  1  0
  1 16  1  0
  2 17  1  0
  3 18  1  0
  3 19  1  0
  4 20  1  1
  5 21  1  0
  5 22  1  0
  5 23  1  0
  7 24  1  0
  7 25  1  0
  7 26  1  0
  8 27  1  6
  9 28  1  0
  9 29  1  0
 10 30  1  0
 10 31  1  0
 13 32  1  0
M  END
$$$$

     RDKit          3D

 32 31  0  0  0  0  0  0  0  0999 V2000
   -3.3243    0.8269    1.4449 C   0  0  0  0  0  0  0  0  0  0  0  0
   -2.2945   -0.1483    1.0035 N   0  0  0  0  0  0  0  0  0  0  0  0
   -1.5004    0.5638    0.0386 C   0  0  0  0  0  0  0  0  0  0  0  0
   -0.4312   -0.2375   -0.6410 C   0  0  2  0  0  0  0  0  0  0  0  0
   -1.2057   -1.3797   -1.3569 C   0  0  0  0  0  0  0  0  0  0  0  0
    0.6007   -0.7226    0.1379 N   0  0  0  0  0  0  0  0  0  0  0  0
    0.3847   -1.6732    1.1575 C   0  0  0  0  0  0  0  0  0  0  0  0
    1.9148   -0.2670    0.0439 C   0  0  2  0  0  0  0  0  0  0  0  0
    2.1209    1.2098    0.3891 C   0  0  0  0  0  0  0  0  0  0  0  0
    1.3865    2.1025   -0.4461 N   0  0  0  0  0  0  0  0  0  0  0  0
    2.6275   -0.5102   -1.2116 C   0  0  0  0  0  0  0  0  0  0  0  0
    3.7893   -0.0479   -1.3412 O   0  0  0  0  0  0  0  0  0  0  0  0
    2.1200   -1.2197   -2.2865 O   0  0  0  0  0  0  0  0  0  0  0  0
   -3.6212    0.5925    2.4755 H   0  0  0  0  0  0  0  0  0  0  0  0
   -4.1989    0.7569    0.7323 H   0  0  0  0  0  0  0  0  0  0  0  0
   -2.9322    1.8507    1.2965 H   0  0  0  0  0  0  0  0  0  0  0  0
   -1.7170   -0.3388    1.8840 H   0  0  0  0  0  0  0  0  0  0  0  0
   -2.2515    0.9622   -0.7132 H   0  0  0  0  0  0  0  0  0  0  0  0
   -1.1205    1.4757    0.5546 H   0  0  0  0  0  0  0  0  0  0  0  0
   -0.0737    0.3926   -1.5089 H   0  0  0  0  0  0  0  0  0  0  0  0
   -2.0309   -1.7159   -0.6615 H   0  0  0  0  0  0  0  0  0  0  0  0
   -1.7391   -0.8937   -2.1946 H   0  0  0  0  0  0  0  0  0  0  0  0
   -0.5464   -2.1903   -1.6581 H   0  0  0  0  0  0  0  0  0  0  0  0
   -0.5805   -2.2245    1.0829 H   0  0  0  0  0  0  0  0  0  0  0  0
    0.4706   -1.1890    2.1482 H   0  0  0  0  0  0  0  0  0  0  0  0
    1.2348   -2.4331    1.1494 H   0  0  0  0  0  0  0  0  0  0  0  0
    2.5257   -0.7961    0.8513 H   0  0  0  0  0  0  0  0  0  0  0  0
    3.2280    1.3870    0.2841 H   0  0  0  0  0  0  0  0  0  0  0  0
    1.8768    1.3617    1.4728 H   0  0  0  0  0  0  0  0  0  0  0  0
    0.8646    2.7749    0.1568 H   0  0  0  0  0  0  0  0  0  0  0  0
    2.0735    2.6672   -1.0317 H   0  0  0  0  0  0  0  0  0  0  0  0
    2.3495   -0.9369   -3.2523 H   0  0  0  0  0  0  0  0  0  0  0  0
  1  2  1  0
  2  3  1  0
  3  4  1  0
  4  5  1  0
  4  6  1  0
  6  7  1  0
  6  8  1  0
  8  9  1  0
  9 10  1  0
  8 11  1  0
 11 12  2  0
 11 13  1  0
  1 14  1  0
  1 15  1  0
  1 16  1  0
  2 17  1  0
  3 18  1  0
  3 19  1  0
  4 20  1  6
  5 21  1  0
  5 22  1  0
  5 23  1  0
  7 24  1  0
  7 25  1  0
  7 26  1  0
  8 27  1  1
  9 28  1  0
  9 29  1  0
 10 30  1  0
 10 31  1  0
 13 32  1  0
M  END
$$$$

     RDKit          3D

 32 31  0  0  0  0  0  0  0  0999 V2000
    3.1476    1.3698    0.6553 C   0  0  0  0  0  0  0  0  0  0  0  0
    2.0824    0.4198    0.7201 N   0  0  0  0  0  0  0  0  0  0  0  0
    1.8442   -0.3371   -0.4729 C   0  0  0  0  0  0  0  0  0  0  0  0
    0.7191   -1.2768   -0.3111 C   0  0  2  0  0  0  0  0  0  0  0  0
    0.5757   -2.0547   -1.6348 C   0  0  0  0  0  0  0  0  0  0  0  0
   -0.5527   -0.7887    0.0314 N   0  0  0  0  0  0  0  0  0  0  0  0
   -1.4206   -1.7932    0.5519 C   0  0  0  0  0  0  0  0  0  0  0  0
   -0.8142    0.5501    0.2542 C   0  0  2  0  0  0  0  0  0  0  0  0
   -2.0093    0.6956    1.2444 C   0  0  0  0  0  0  0  0  0  0  0  0
   -2.2537    2.1124    1.4732 N   0  0  0  0  0  0  0  0  0  0  0  0
   -1.2955    1.2733   -0.9573 C   0  0  0  0  0  0  0  0  0  0  0  0
   -1.3479    2.5528   -1.0061 O   0  0  0  0  0  0  0  0  0  0  0  0
   -1.7209    0.6367   -2.1113 O   0  0  0  0  0  0  0  0  0  0  0  0
    3.6581    1.4609    1.6214 H   0  0  0  0  0  0  0  0  0  0  0  0
    3.8474    1.0749   -0.1563 H   0  0  0  0  0  0  0  0  0  0  0  0
    2.7158    2.3703    0.3658 H   0  0  0  0  0  0  0  0  0  0  0  0
    2.1282   -0.2229    1.5458 H   0  0  0  0  0  0  0  0  0  0  0  0
    2.7836   -0.9423   -0.6552 H   0  0  0  0  0  0  0  0  0  0  0  0
    1.7770    0.3250   -1.3631 H   0  0  0  0  0  0  0  0  0  0  0  0
    1.0270   -2.0358    0.4560 H   0  0  0  0  0  0  0  0  0  0  0  0
    0.3158   -3.1188   -1.4049 H   0  0  0  0  0  0  0  0  0  0  0  0
   -0.2791   -1.6356   -2.1813 H   0  0  0  0  0  0  0  0  0  0  0  0
    1.5024   -1.9553   -2.2301 H   0  0  0  0  0  0  0  0  0  0  0  0
   -1.8209   -2.3831   -0.2993 H   0  0  0  0  0  0  0  0  0  0  0  0
   -2.1987   -1.4841    1.2340 H   0  0  0  0  0  0  0  0  0  0  0  0
   -0.7776   -2.5313    1.1320 H   0  0  0  0  0  0  0  0  0  0  0  0
   -0.0476    1.1847    0.7247 H   0  0  0  0  0  0  0  0  0  0  0  0
   -1.7040    0.2364    2.1818 H   0  0  0  0  0  0  0  0  0  0  0  0
   -2.9368    0.3166    0.7876 H   0  0  0  0  0  0  0  0  0  0  0  0
   -2.8955    2.4743    0.7231 H   0  0  0  0  0  0  0  0  0  0  0  0
   -1.4008    2.6724    1.5883 H   0  0  0  0  0  0  0  0  0  0  0  0
   -2.6487    0.8338   -2.5074 H   0  0  0  0  0  0  0  0  0  0  0  0
  1  2  1  0
  2  3  1  0
  3  4  1  0
  4  5  1  0
  4  6  1  0
  6  7  1  0
  6  8  1  0
  8  9  1  0
  9 10  1  0
  8 11  1  0
 11 12  2  0
 11 13  1  0
  1 14  1  0
  1 15  1  0
  1 16  1  0
  2 17  1  0
  3 18  1  0
  3 19  1  0
  4 20  1  1
  5 21  1  0
  5 22  1  0
  5 23  1  0
  7 24  1  0
  7 25  1  0
  7 26  1  0
  8 27  1  1
  9 28  1  0
  9 29  1  0
 10 30  1  0
 10 31  1  0
 13 32  1  0
M  END
$$$$

     RDKit          3D

 32 31  0  0  0  0  0  0  0  0999 V2000
    3.8361    1.1898    0.0666 C   0  0  0  0  0  0  0  0  0  0  0  0
    2.4164    1.0185    0.2286 N   0  0  0  0  0  0  0  0  0  0  0  0
    2.1321   -0.3940    0.2744 C   0  0  0  0  0  0  0  0  0  0  0  0
    0.6855   -0.6968    0.5915 C   0  0  2  0  0  0  0  0  0  0  0  0
    0.5102   -2.1922    0.5908 C   0  0  0  0  0  0  0  0  0  0  0  0
   -0.2603    0.0195   -0.1885 N   0  0  0  0  0  0  0  0  0  0  0  0
   -0.1839   -0.3633   -1.5650 C   0  0  0  0  0  0  0  0  0  0  0  0
   -1.5446    0.1488    0.3739 C   0  0  2  0  0  0  0  0  0  0  0  0
   -2.6536   -0.2512   -0.5364 C   0  0  0  0  0  0  0  0  0  0  0  0
   -3.9755   -0.0611   -0.0110 N   0  0  0  0  0  0  0  0  0  0  0  0
   -1.8769    1.4459    0.9866 C   0  0  0  0  0  0  0  0  0  0  0  0
   -3.0569    1.5221    1.5033 O   0  0  0  0  0  0  0  0  0  0  0  0
   -1.0655    2.5424    1.0426 O   0  0  0  0  0  0  0  0  0  0  0  0
    4.1132    0.7297   -0.9107 H   0  0  0  0  0  0  0  0  0  0  0  0
    4.0598    2.2613    0.1171 H   0  0  0  0  0  0  0  0  0  0  0  0
    4.3928    0.6215    0.8620 H   0  0  0  0  0  0  0  0  0  0  0  0
    2.0626    1.4442    1.0933 H   0  0  0  0  0  0  0  0  0  0  0  0
    2.4652   -0.8478   -0.6716 H   0  0  0  0  0  0  0  0  0  0  0  0
    2.7265   -0.8613    1.0857 H   0  0  0  0  0  0  0  0  0  0  0  0
    0.5670   -0.3809    1.6724 H   0  0  0  0  0  0  0  0  0  0  0  0
    0.2681   -2.5538   -0.4037 H   0  0  0  0  0  0  0  0  0  0  0  0
   -0.2296   -2.4889    1.3629 H   0  0  0  0  0  0  0  0  0  0  0  0
    1.4976   -2.6181    0.9001 H   0  0  0  0  0  0  0  0  0  0  0  0
    0.7904   -0.8891   -1.7868 H   0  0  0  0  0  0  0  0  0  0  0  0
   -0.9402   -1.0810   -1.9110 H   0  0  0  0  0  0  0  0  0  0  0  0
   -0.1550    0.5527   -2.1735 H   0  0  0  0  0  0  0  0  0  0  0  0
   -1.5754   -0.5738    1.2595 H   0  0  0  0  0  0  0  0  0  0  0  0
   -2.5714   -1.3598   -0.6926 H   0  0  0  0  0  0  0  0  0  0  0  0
   -2.5708    0.3284   -1.4805 H   0  0  0  0  0  0  0  0  0  0  0  0
   -4.4044    0.8342   -0.2299 H   0  0  0  0  0  0  0  0  0  0  0  0
   -4.1142   -0.4559    0.9232 H   0  0  0  0  0  0  0  0  0  0  0  0
   -1.3457    3.4101    1.4607 H   0  0  0  0  0  0  0  0  0  0  0  0
  1  2  1  0
  2  3  1  0
  3  4  1  0
  4  5  1  0
  4  6  1  0
  6  7  1  0
  6  8  1  0
  8  9  1  0
  9 10  1  0
  8 11  1  0
 11 12  2  0
 11 13  1  0
  1 14  1  0
  1 15  1  0
  1 16  1  0
  2 17  1  0
  3 18  1  0
  3 19  1  0
  4 20  1  1
  5 21  1  0
  5 22  1  0
  5 23  1  0
  7 24  1  0
  7 25  1  0
  7 26  1  0
  8 27  1  1
  9 28  1  0
  9 29  1  0
 10 30  1  0
 10 31  1  0
 13 32  1  0
M  END
$$$$

     RDKit          3D

 32 31  0  0  0  0  0  0  0  0999 V2000
    3.9515   -0.0776    0.7034 C   0  0  0  0  0  0  0  0  0  0  0  0
    2.5710    0.2999    0.4883 N   0  0  0  0  0  0  0  0  0  0  0  0
    2.0316   -0.3443   -0.6929 C   0  0  0  0  0  0  0  0  0  0  0  0
    0.5618    0.0727   -0.8923 C   0  0  2  0  0  0  0  0  0  0  0  0
    0.5795    1.5442   -1.0510 C   0  0  0  0  0  0  0  0  0  0  0  0
   -0.1756   -0.5302    0.0877 N   0  0  0  0  0  0  0  0  0  0  0  0
   -0.0882   -1.9890   -0.0570 C   0  0  0  0  0  0  0  0  0  0  0  0
   -1.4094   -0.1494    0.5502 C   0  0  2  0  0  0  0  0  0  0  0  0
   -2.5081   -0.2072   -0.5252 C   0  0  0  0  0  0  0  0  0  0  0  0
   -3.7627    0.2165    0.0765 N   0  0  0  0  0  0  0  0  0  0  0  0
   -1.5834    1.0811    1.3024 C   0  0  0  0  0  0  0  0  0  0  0  0
   -0.6595    1.8736    1.6124 O   0  0  0  0  0  0  0  0  0  0  0  0
   -2.8529    1.4476    1.7319 O   0  0  0  0  0  0  0  0  0  0  0  0
    3.9991   -0.8459    1.4901 H   0  0  0  0  0  0  0  0  0  0  0  0
    4.5768    0.8051    0.9814 H   0  0  0  0  0  0  0  0  0  0  0  0
    4.3230   -0.4806   -0.2748 H   0  0  0  0  0  0  0  0  0  0  0  0
    2.0473    0.0748    1.3562 H   0  0  0  0  0  0  0  0  0  0  0  0
    2.1642   -1.4242   -0.6644 H   0  0  0  0  0  0  0  0  0  0  0  0
    2.6403    0.0424   -1.5550 H   0  0  0  0  0  0  0  0  0  0  0  0
    0.3033   -0.3664   -1.9033 H   0  0  0  0  0  0  0  0  0  0  0  0
    1.0284    1.7584   -2.0706 H   0  0  0  0  0  0  0  0  0  0  0  0
   -0.4473    1.9440   -1.1185 H   0  0  0  0  0  0  0  0  0  0  0  0
    1.2403    2.0893   -0.3528 H   0  0  0  0  0  0  0  0  0  0  0  0
   -0.9962   -2.4281    0.3977 H   0  0  0  0  0  0  0  0  0  0  0  0
    0.7964   -2.3970    0.4791 H   0  0  0  0  0  0  0  0  0  0  0  0
    0.0461   -2.2636   -1.1265 H   0  0  0  0  0  0  0  0  0  0  0  0
   -1.7554   -0.9856    1.2472 H   0  0  0  0  0  0  0  0  0  0  0  0
   -2.6759   -1.2742   -0.8333 H   0  0  0  0  0  0  0  0  0  0  0  0
   -2.2912    0.4449   -1.3720 H   0  0  0  0  0  0  0  0  0  0  0  0
   -4.0499   -0.5155    0.7675 H   0  0  0  0  0  0  0  0  0  0  0  0
   -4.4897    0.1678   -0.6993 H   0  0  0  0  0  0  0  0  0  0  0  0
   -3.1154    2.4165    1.9168 H   0  0  0  0  0  0  0  0  0  0  0  0
  1  2  1  0
  2  3  1  0
  3  4  1  0
  4  5  1  0
  4  6  1  0
  6  7  1  0
  6  8  1  0
  8  9  1  0
  9 10  1  0
  8 11  1  0
 11 12  2  0
 11 13  1  0
  1 14  1  0
  1 15  1  0
  1 16  1  0
  2 17  1  0
  3 18  1  0
  3 19  1  0
  4 20  1  6
  5 21  1  0
  5 22  1  0
  5 23  1  0
  7 24  1  0
  7 25  1  0
  7 26  1  0
  8 27  1  1
  9 28  1  0
  9 29  1  0
 10 30  1  0
 10 31  1  0
 13 32  1  0
M  END
$$$$

     RDKit          3D

 32 31  0  0  0  0  0  0  0  0999 V2000
    4.2038    0.9260    0.2522 C   0  0  0  0  0  0  0  0  0  0  0  0
    2.9281    0.5999    0.8313 N   0  0  0  0  0  0  0  0  0  0  0  0
    1.9082    0.4626   -0.2208 C   0  0  0  0  0  0  0  0  0  0  0  0
    0.6201    0.1211    0.5393 C   0  0  2  0  0  0  0  0  0  0  0  0
    0.9224   -1.1715    1.2674 C   0  0  0  0  0  0  0  0  0  0  0  0
   -0.4468   -0.0355   -0.3965 N   0  0  0  0  0  0  0  0  0  0  0  0
   -0.3209   -1.0812   -1.3217 C   0  0  0  0  0  0  0  0  0  0  0  0
   -1.7048    0.4172    0.0071 C   0  0  2  0  0  0  0  0  0  0  0  0
   -2.3017   -0.2820    1.2050 C   0  0  0  0  0  0  0  0  0  0  0  0
   -3.5896    0.2550    1.5361 N   0  0  0  0  0  0  0  0  0  0  0  0
   -2.6695    0.3820   -1.1134 C   0  0  0  0  0  0  0  0  0  0  0  0
   -3.8703    0.7658   -0.9625 O   0  0  0  0  0  0  0  0  0  0  0  0
   -2.2942   -0.0682   -2.3540 O   0  0  0  0  0  0  0  0  0  0  0  0
    5.0170    0.5827    0.9133 H   0  0  0  0  0  0  0  0  0  0  0  0
    4.3336    0.5348   -0.7697 H   0  0  0  0  0  0  0  0  0  0  0  0
    4.2862    2.0384    0.1809 H   0  0  0  0  0  0  0  0  0  0  0  0
    2.6703    1.3400    1.5055 H   0  0  0  0  0  0  0  0  0  0  0  0
    2.1921   -0.3864   -0.8665 H   0  0  0  0  0  0  0  0  0  0  0  0
    1.7591    1.4043   -0.7638 H   0  0  0  0  0  0  0  0  0  0  0  0
    0.4376    0.8987    1.2917 H   0  0  0  0  0  0  0  0  0  0  0  0
    0.0448   -1.7755    1.5015 H   0  0  0  0  0  0  0  0  0  0  0  0
    1.4119   -0.8958    2.2251 H   0  0  0  0  0  0  0  0  0  0  0  0
    1.7073   -1.7613    0.7067 H   0  0  0  0  0  0  0  0  0  0  0  0
   -0.0647   -0.7192   -2.3591 H   0  0  0  0  0  0  0  0  0  0  0  0
   -1.1281   -1.8206   -1.3755 H   0  0  0  0  0  0  0  0  0  0  0  0
    0.6004   -1.6716   -1.0395 H   0  0  0  0  0  0  0  0  0  0  0  0
   -1.6071    1.4954    0.3037 H   0  0  0  0  0  0  0  0  0  0  0  0
   -2.3956   -1.3613    1.0482 H   0  0  0  0  0  0  0  0  0  0  0  0
   -1.6419   -0.1141    2.0963 H   0  0  0  0  0  0  0  0  0  0  0  0
   -3.7138    1.2507    1.3213 H   0  0  0  0  0  0  0  0  0  0  0  0
   -4.3888   -0.3189    1.2425 H   0  0  0  0  0  0  0  0  0  0  0  0
   -2.9053   -0.0115   -3.1714 H   0  0  0  0  0  0  0  0  0  0  0  0
  1  2  1  0
  2  3  1  0
  3  4  1  0
  4  5  1  0
  4  6  1  0
  6  7  1  0
  6  8  1  0
  8  9  1  0
  9 10  1  0
  8 11  1  0
 11 12  2  0
 11 13  1  0
  1 14  1  0
  1 15  1  0
  1 16  1  0
  2 17  1  0
  3 18  1  0
  3 19  1  0
  4 20  1  1
  5 21  1  0
  5 22  1  0
  5 23  1  0
  7 24  1  0
  7 25  1  0
  7 26  1  0
  8 27  1  1
  9 28  1  0
  9 29  1  0
 10 30  1  0
 10 31  1  0
 13 32  1  0
M  END
$$$$

     RDKit          3D

 32 31  0  0  0  0  0  0  0  0999 V2000
    3.0602    1.5928    1.4866 C   0  0  0  0  0  0  0  0  0  0  0  0
    2.3515    0.7268    0.5496 N   0  0  0  0  0  0  0  0  0  0  0  0
    1.4080   -0.1173    1.2472 C   0  0  0  0  0  0  0  0  0  0  0  0
    0.6037   -1.0101    0.3927 C   0  0  2  0  0  0  0  0  0  0  0  0
    1.5222   -1.9242   -0.3916 C   0  0  0  0  0  0  0  0  0  0  0  0
   -0.3324   -0.4260   -0.5145 N   0  0  0  0  0  0  0  0  0  0  0  0
    0.2406    0.3823   -1.5551 C   0  0  0  0  0  0  0  0  0  0  0  0
   -1.4033    0.2775    0.1484 C   0  0  2  0  0  0  0  0  0  0  0  0
   -2.2194   -0.6363    1.0431 C   0  0  0  0  0  0  0  0  0  0  0  0
   -3.2557    0.2332    1.6273 N   0  0  0  0  0  0  0  0  0  0  0  0
   -2.3593    0.7695   -0.8735 C   0  0  0  0  0  0  0  0  0  0  0  0
   -3.3142    1.5383   -0.5407 O   0  0  0  0  0  0  0  0  0  0  0  0
   -2.2184    0.3923   -2.1946 O   0  0  0  0  0  0  0  0  0  0  0  0
    2.3357    2.2020    2.0263 H   0  0  0  0  0  0  0  0  0  0  0  0
    3.7527    2.2087    0.8830 H   0  0  0  0  0  0  0  0  0  0  0  0
    3.6981    0.9781    2.1655 H   0  0  0  0  0  0  0  0  0  0  0  0
    3.0647    0.1525    0.0231 H   0  0  0  0  0  0  0  0  0  0  0  0
    2.0437   -0.7437    1.9423 H   0  0  0  0  0  0  0  0  0  0  0  0
    0.8156    0.5192    1.9389 H   0  0  0  0  0  0  0  0  0  0  0  0
    0.0113   -1.7117    1.0408 H   0  0  0  0  0  0  0  0  0  0  0  0
    0.9026   -2.7010   -0.9121 H   0  0  0  0  0  0  0  0  0  0  0  0
    2.2483   -2.4245    0.2845 H   0  0  0  0  0  0  0  0  0  0  0  0
    2.0295   -1.3330   -1.1671 H   0  0  0  0  0  0  0  0  0  0  0  0
   -0.2496    1.3748   -1.5278 H   0  0  0  0  0  0  0  0  0  0  0  0
   -0.0295   -0.0925   -2.5312 H   0  0  0  0  0  0  0  0  0  0  0  0
    1.3200    0.5391   -1.5107 H   0  0  0  0  0  0  0  0  0  0  0  0
   -1.0672    1.1367    0.7542 H   0  0  0  0  0  0  0  0  0  0  0  0
   -2.7310   -1.3977    0.4380 H   0  0  0  0  0  0  0  0  0  0  0  0
   -1.6664   -1.0231    1.9096 H   0  0  0  0  0  0  0  0  0  0  0  0
   -3.3406    0.1256    2.6434 H   0  0  0  0  0  0  0  0  0  0  0  0
   -4.1733    0.0954    1.1504 H   0  0  0  0  0  0  0  0  0  0  0  0
   -3.0483    0.2965   -2.7979 H   0  0  0  0  0  0  0  0  0  0  0  0
  1  2  1  0
  2  3  1  0
  3  4  1  0
  4  5  1  0
  4  6  1  0
  6  7  1  0
  6  8  1  0
  8  9  1  0
  9 10  1  0
  8 11  1  0
 11 12  2  0
 11 13  1  0
  1 14  1  0
  1 15  1  0
  1 16  1  0
  2 17  1  0
  3 18  1  0
  3 19  1  0
  4 20  1  1
  5 21  1  0
  5 22  1  0
  5 23  1  0
  7 24  1  0
  7 25  1  0
  7 26  1  0
  8 27  1  1
  9 28  1  0
  9 29  1  0
 10 30  1  0
 10 31  1  0
 13 32  1  0
M  END
$$$$

     RDKit          3D

 32 31  0  0  0  0  0  0  0  0999 V2000
    4.0976    0.7326    1.0348 C   0  0  0  0  0  0  0  0  0  0  0  0
    2.9664   -0.1453    0.9013 N   0  0  0  0  0  0  0  0  0  0  0  0
    1.8782    0.4727    0.1674 C   0  0  0  0  0  0  0  0  0  0  0  0
    0.7017   -0.5001    0.0913 C   0  0  2  0  0  0  0  0  0  0  0  0
    1.2257   -1.7197   -0.6311 C   0  0  0  0  0  0  0  0  0  0  0  0
   -0.4259    0.0991   -0.5120 N   0  0  0  0  0  0  0  0  0  0  0  0
   -0.2275    0.4638   -1.8353 C   0  0  0  0  0  0  0  0  0  0  0  0
   -1.6470   -0.2233    0.0401 C   0  0  2  0  0  0  0  0  0  0  0  0
   -2.8789    0.1689   -0.7195 C   0  0  0  0  0  0  0  0  0  0  0  0
   -4.1096   -0.2077   -0.0588 N   0  0  0  0  0  0  0  0  0  0  0  0
   -1.7708    0.3752    1.3928 C   0  0  0  0  0  0  0  0  0  0  0  0
   -0.8636    1.0533    1.9181 O   0  0  0  0  0  0  0  0  0  0  0  0
   -2.9396    0.1707    2.0942 O   0  0  0  0  0  0  0  0  0  0  0  0
    4.8004    0.2826    1.7687 H   0  0  0  0  0  0  0  0  0  0  0  0
    4.5617    0.8477    0.0512 H   0  0  0  0  0  0  0  0  0  0  0  0
    3.7584    1.7262    1.4158 H   0  0  0  0  0  0  0  0  0  0  0  0
    2.6759   -0.6290    1.7589 H   0  0  0  0  0  0  0  0  0  0  0  0
    2.2613    0.6693   -0.8584 H   0  0  0  0  0  0  0  0  0  0  0  0
    1.5765    1.3764    0.7121 H   0  0  0  0  0  0  0  0  0  0  0  0
    0.4732   -0.8594    1.1361 H   0  0  0  0  0  0  0  0  0  0  0  0
    0.4888   -2.5305   -0.7320 H   0  0  0  0  0  0  0  0  0  0  0  0
    2.0621   -2.1175   -0.0273 H   0  0  0  0  0  0  0  0  0  0  0  0
    1.6512   -1.4866   -1.6261 H   0  0  0  0  0  0  0  0  0  0  0  0
    0.0495   -0.4181   -2.4674 H   0  0  0  0  0  0  0  0  0  0  0  0
    0.6025    1.2221   -1.8882 H   0  0  0  0  0  0  0  0  0  0  0  0
   -1.0716    0.9803   -2.3436 H   0  0  0  0  0  0  0  0  0  0  0  0
   -1.7017   -1.3364    0.2246 H   0  0  0  0  0  0  0  0  0  0  0  0
   -2.9515    1.2100   -1.0100 H   0  0  0  0  0  0  0  0  0  0  0  0
   -2.8658   -0.4178   -1.6935 H   0  0  0  0  0  0  0  0  0  0  0  0
   -4.4688    0.6719    0.4192 H   0  0  0  0  0  0  0  0  0  0  0  0
   -4.8211   -0.4323   -0.8099 H   0  0  0  0  0  0  0  0  0  0  0  0
   -3.0878    0.5009    3.0498 H   0  0  0  0  0  0  0  0  0  0  0  0
  1  2  1  0
  2  3  1  0
  3  4  1  0
  4  5  1  0
  4  6  1  0
  6  7  1  0
  6  8  1  0
  8  9  1  0
  9 10  1  0
  8 11  1  0
 11 12  2  0
 11 13  1  0
  1 14  1  0
  1 15  1  0
  1 16  1  0
  2 17  1  0
  3 18  1  0
  3 19  1  0
  4 20  1  1
  5 21  1  0
  5 22  1  0
  5 23  1  0
  7 24  1  0
  7 25  1  0
  7 26  1  0
  8 27  1  1
  9 28  1  0
  9 29  1  0
 10 30  1  0
 10 31  1  0
 13 32  1  0
M  END
$$$$
