
     RDKit          3D

 17 17  0  0  0  0  0  0  0  0999 V2000
   -1.4232    0.6340   -1.3413 C   0  0  0  0  0  0  0  0  0  0  0  0
   -1.3139    0.7123    0.0992 N   0  0  0  0  0  0  0  0  0  0  0  0
   -1.9441    1.6254    0.8171 N   0  0  0  0  0  0  0  0  0  0  0  0
   -1.6677    1.4646    2.0874 N   0  0  0  0  0  0  0  0  0  0  0  0
   -0.8490    0.4320    2.1705 N   0  0  0  0  0  0  0  0  0  0  0  0
   -0.6122   -0.0557    0.9447 C   0  0  0  0  0  0  0  0  0  0  0  0
    0.2372   -1.2015    0.5377 C   0  0  0  0  0  0  0  0  0  0  0  0
    1.9054   -0.6959    0.2048 S   0  0  0  0  0  6  0  0  0  0  0  0
    2.5452   -0.1247    1.4312 O   0  0  0  0  0  0  0  0  0  0  0  0
    2.6755   -1.8946   -0.2745 O   0  0  0  0  0  0  0  0  0  0  0  0
    1.9532    0.4395   -1.0385 O   0  0  0  0  0  0  0  0  0  0  0  0
   -2.4347    0.2329   -1.6346 H   0  0  0  0  0  0  0  0  0  0  0  0
   -1.3094    1.6617   -1.7724 H   0  0  0  0  0  0  0  0  0  0  0  0
   -0.6561   -0.0565   -1.7549 H   0  0  0  0  0  0  0  0  0  0  0  0
   -0.2084   -1.6824   -0.3466 H   0  0  0  0  0  0  0  0  0  0  0  0
    0.2977   -1.9335    1.3858 H   0  0  0  0  0  0  0  0  0  0  0  0
    2.8046    0.4423   -1.5157 H   0  0  0  0  0  0  0  0  0  0  0  0
  1  2  1  0
  2  3  1  0
  3  4  2  0
  4  5  1  0
  5  6  2  0
  6  7  1  0
  7  8  1  0
  8  9  2  0
  8 10  2  0
  8 11  1  0
  6  2  1  0
  1 12  1  0
  1 13  1  0
  1 14  1  0
  7 15  1  0
  7 16  1  0
 11 17  1  0
M  END
$$$$

     RDKit          3D

 17 17  0  0  0  0  0  0  0  0999 V2000
   -1.5960   -1.2466   -0.1173 C   0  0  0  0  0  0  0  0  0  0  0  0
   -1.4823    0.1542    0.2193 N   0  0  0  0  0  0  0  0  0  0  0  0
   -2.3245    0.8657    0.9470 N   0  0  0  0  0  0  0  0  0  0  0  0
   -1.8804    2.1148    1.0351 N   0  0  0  0  0  0  0  0  0  0  0  0
   -0.7519    2.1462    0.3460 N   0  0  0  0  0  0  0  0  0  0  0  0
   -0.4750    0.9423   -0.1751 C   0  0  0  0  0  0  0  0  0  0  0  0
    0.6824    0.5598   -1.0022 C   0  0  0  0  0  0  0  0  0  0  0  0
    2.0519   -0.0093   -0.0244 S   0  0  0  0  0  6  0  0  0  0  0  0
    3.1715   -0.3985   -0.9484 O   0  0  0  0  0  0  0  0  0  0  0  0
    2.5734    1.0740    0.8749 O   0  0  0  0  0  0  0  0  0  0  0  0
    1.6517   -1.3461    0.8875 O   0  0  0  0  0  0  0  0  0  0  0  0
   -1.0520   -1.4484   -1.0531 H   0  0  0  0  0  0  0  0  0  0  0  0
   -1.1201   -1.8987    0.6686 H   0  0  0  0  0  0  0  0  0  0  0  0
   -2.6558   -1.5700   -0.1685 H   0  0  0  0  0  0  0  0  0  0  0  0
    1.0693    1.4515   -1.5779 H   0  0  0  0  0  0  0  0  0  0  0  0
    0.4542   -0.1986   -1.7700 H   0  0  0  0  0  0  0  0  0  0  0  0
    1.6836   -1.1923    1.8583 H   0  0  0  0  0  0  0  0  0  0  0  0
  1  2  1  0
  2  3  1  0
  3  4  2  0
  4  5  1  0
  5  6  2  0
  6  7  1  0
  7  8  1  0
  8  9  2  0
  8 10  2  0
  8 11  1  0
  6  2  1  0
  1 12  1  0
  1 13  1  0
  1 14  1  0
  7 15  1  0
  7 16  1  0
 11 17  1  0
M  END
$$$$

     RDKit          3D

 17 17  0  0  0  0  0  0  0  0999 V2000
    1.8623   -0.8561    0.0681 C   0  0  0  0  0  0  0  0  0  0  0  0
    1.3528    0.5014    0.2018 N   0  0  0  0  0  0  0  0  0  0  0  0
    1.9731    1.4770    0.8704 N   0  0  0  0  0  0  0  0  0  0  0  0
    1.1885    2.5535    0.7557 N   0  0  0  0  0  0  0  0  0  0  0  0
    0.1170    2.2602    0.0411 N   0  0  0  0  0  0  0  0  0  0  0  0
    0.2037    0.9716   -0.3163 C   0  0  0  0  0  0  0  0  0  0  0  0
   -0.8005    0.2416   -1.1300 C   0  0  0  0  0  0  0  0  0  0  0  0
   -1.9925   -0.4743    0.0024 S   0  0  0  0  0  6  0  0  0  0  0  0
   -2.5942    0.6781    0.7745 O   0  0  0  0  0  0  0  0  0  0  0  0
   -3.0523   -1.2267   -0.7561 O   0  0  0  0  0  0  0  0  0  0  0  0
   -1.1493   -1.5045    1.0091 O   0  0  0  0  0  0  0  0  0  0  0  0
    1.8873   -1.3791    1.0495 H   0  0  0  0  0  0  0  0  0  0  0  0
    2.8856   -0.8623   -0.3672 H   0  0  0  0  0  0  0  0  0  0  0  0
    1.2082   -1.4197   -0.6250 H   0  0  0  0  0  0  0  0  0  0  0  0
   -0.3256   -0.5500   -1.7483 H   0  0  0  0  0  0  0  0  0  0  0  0
   -1.3242    0.9786   -1.7777 H   0  0  0  0  0  0  0  0  0  0  0  0
   -1.4398   -1.3892    1.9480 H   0  0  0  0  0  0  0  0  0  0  0  0
  1  2  1  0
  2  3  1  0
  3  4  2  0
  4  5  1  0
  5  6  2  0
  6  7  1  0
  7  8  1  0
  8  9  2  0
  8 10  2  0
  8 11  1  0
  6  2  1  0
  1 12  1  0
  1 13  1  0
  1 14  1  0
  7 15  1  0
  7 16  1  0
 11 17  1  0
M  END
$$$$

     RDKit          3D

 17 17  0  0  0  0  0  0  0  0999 V2000
   -1.9693    0.6371   -0.7803 C   0  0  0  0  0  0  0  0  0  0  0  0
   -1.5772   -0.3276    0.2257 N   0  0  0  0  0  0  0  0  0  0  0  0
   -2.3430   -1.2883    0.7145 N   0  0  0  0  0  0  0  0  0  0  0  0
   -1.6387   -1.9540    1.6013 N   0  0  0  0  0  0  0  0  0  0  0  0
   -0.4441   -1.4302    1.6797 N   0  0  0  0  0  0  0  0  0  0  0  0
   -0.3954   -0.4046    0.8166 C   0  0  0  0  0  0  0  0  0  0  0  0
    0.8143    0.4348    0.6294 C   0  0  0  0  0  0  0  0  0  0  0  0
    1.8633   -0.2331   -0.6430 S   0  0  0  0  0  6  0  0  0  0  0  0
    2.2806   -1.6166   -0.1920 O   0  0  0  0  0  0  0  0  0  0  0  0
    1.1956   -0.2694   -1.9728 O   0  0  0  0  0  0  0  0  0  0  0  0
    3.1928    0.7824   -0.7749 O   0  0  0  0  0  0  0  0  0  0  0  0
   -1.1158    1.0713   -1.3233 H   0  0  0  0  0  0  0  0  0  0  0  0
   -2.6017    0.1223   -1.5428 H   0  0  0  0  0  0  0  0  0  0  0  0
   -2.6353    1.4254   -0.3254 H   0  0  0  0  0  0  0  0  0  0  0  0
    1.4355    0.4905    1.5470 H   0  0  0  0  0  0  0  0  0  0  0  0
    0.5312    1.4682    0.3009 H   0  0  0  0  0  0  0  0  0  0  0  0
    3.4070    1.0919    0.1525 H   0  0  0  0  0  0  0  0  0  0  0  0
  1  2  1  0
  2  3  1  0
  3  4  2  0
  4  5  1  0
  5  6  2  0
  6  7  1  0
  7  8  1  0
  8  9  2  0
  8 10  2  0
  8 11  1  0
  6  2  1  0
  1 12  1  0
  1 13  1  0
  1 14  1  0
  7 15  1  0
  7 16  1  0
 11 17  1  0
M  END
$$$$

     RDKit          3D

 17 17  0  0  0  0  0  0  0  0999 V2000
   -1.5087    1.2638    0.4417 C   0  0  0  0  0  0  0  0  0  0  0  0
   -1.4849   -0.1476    0.1487 N   0  0  0  0  0  0  0  0  0  0  0  0
   -2.4356   -1.0177    0.4783 N   0  0  0  0  0  0  0  0  0  0  0  0
   -2.1260   -2.2170    0.0762 N   0  0  0  0  0  0  0  0  0  0  0  0
   -0.9474   -2.1127   -0.5261 N   0  0  0  0  0  0  0  0  0  0  0  0
   -0.5324   -0.8427   -0.4930 C   0  0  0  0  0  0  0  0  0  0  0  0
    0.7057   -0.2913   -1.0378 C   0  0  0  0  0  0  0  0  0  0  0  0
    2.0552   -0.3028    0.1044 S   0  0  0  0  0  6  0  0  0  0  0  0
    2.4877   -1.6656    0.4827 O   0  0  0  0  0  0  0  0  0  0  0  0
    3.2243    0.3660   -0.6036 O   0  0  0  0  0  0  0  0  0  0  0  0
    1.7125    0.5973    1.4780 O   0  0  0  0  0  0  0  0  0  0  0  0
   -1.8616    1.4107    1.4987 H   0  0  0  0  0  0  0  0  0  0  0  0
   -2.2388    1.7225   -0.2697 H   0  0  0  0  0  0  0  0  0  0  0  0
   -0.5203    1.7264    0.3374 H   0  0  0  0  0  0  0  0  0  0  0  0
    1.0581   -0.8265   -1.9558 H   0  0  0  0  0  0  0  0  0  0  0  0
    0.5939    0.7821   -1.3709 H   0  0  0  0  0  0  0  0  0  0  0  0
    1.8183    1.5553    1.2107 H   0  0  0  0  0  0  0  0  0  0  0  0
  1  2  1  0
  2  3  1  0
  3  4  2  0
  4  5  1  0
  5  6  2  0
  6  7  1  0
  7  8  1  0
  8  9  2  0
  8 10  2  0
  8 11  1  0
  6  2  1  0
  1 12  1  0
  1 13  1  0
  1 14  1  0
  7 15  1  0
  7 16  1  0
 11 17  1  0
M  END
$$$$

     RDKit          3D

 17 17  0  0  0  0  0  0  0  0999 V2000
   -1.4235    1.3929   -0.2202 C   0  0  0  0  0  0  0  0  0  0  0  0
   -1.4924   -0.0289    0.0252 N   0  0  0  0  0  0  0  0  0  0  0  0
   -2.5431   -0.6059    0.5936 N   0  0  0  0  0  0  0  0  0  0  0  0
   -2.2916   -1.9115    0.6747 N   0  0  0  0  0  0  0  0  0  0  0  0
   -1.0862   -2.1218    0.1538 N   0  0  0  0  0  0  0  0  0  0  0  0
   -0.5595   -0.9511   -0.2636 C   0  0  0  0  0  0  0  0  0  0  0  0
    0.7289   -0.6692   -0.8965 C   0  0  0  0  0  0  0  0  0  0  0  0
    2.0122   -0.3147    0.2701 S   0  0  0  0  0  6  0  0  0  0  0  0
    2.2845   -1.4901    1.1756 O   0  0  0  0  0  0  0  0  0  0  0  0
    3.2744   -0.0121   -0.4870 O   0  0  0  0  0  0  0  0  0  0  0  0
    1.6545    1.0158    1.2103 O   0  0  0  0  0  0  0  0  0  0  0  0
   -2.3644    1.6633   -0.7816 H   0  0  0  0  0  0  0  0  0  0  0  0
   -0.5171    1.7061   -0.7398 H   0  0  0  0  0  0  0  0  0  0  0  0
   -1.5320    1.9263    0.7607 H   0  0  0  0  0  0  0  0  0  0  0  0
    1.0604   -1.5810   -1.4631 H   0  0  0  0  0  0  0  0  0  0  0  0
    0.7056    0.1566   -1.6242 H   0  0  0  0  0  0  0  0  0  0  0  0
    2.0896    1.8253    0.8437 H   0  0  0  0  0  0  0  0  0  0  0  0
  1  2  1  0
  2  3  1  0
  3  4  2  0
  4  5  1  0
  5  6  2  0
  6  7  1  0
  7  8  1  0
  8  9  2  0
  8 10  2  0
  8 11  1  0
  6  2  1  0
  1 12  1  0
  1 13  1  0
  1 14  1  0
  7 15  1  0
  7 16  1  0
 11 17  1  0
M  END
$$$$

     RDKit          3D

 17 17  0  0  0  0  0  0  0  0999 V2000
   -1.9753   -0.6286    0.7108 C   0  0  0  0  0  0  0  0  0  0  0  0
   -1.4120    0.5530    0.1034 N   0  0  0  0  0  0  0  0  0  0  0  0
   -1.9101    1.7884    0.1915 N   0  0  0  0  0  0  0  0  0  0  0  0
   -1.1620    2.6389   -0.4736 N   0  0  0  0  0  0  0  0  0  0  0  0
   -0.1692    1.9287   -0.9942 N   0  0  0  0  0  0  0  0  0  0  0  0
   -0.3055    0.6333   -0.6485 C   0  0  0  0  0  0  0  0  0  0  0  0
    0.6122   -0.4665   -1.0424 C   0  0  0  0  0  0  0  0  0  0  0  0
    1.9180   -0.6838    0.1401 S   0  0  0  0  0  6  0  0  0  0  0  0
    2.8012   -1.8001   -0.4004 O   0  0  0  0  0  0  0  0  0  0  0  0
    1.3029   -1.1638    1.4184 O   0  0  0  0  0  0  0  0  0  0  0  0
    2.8544    0.6675    0.3226 O   0  0  0  0  0  0  0  0  0  0  0  0
   -1.9519   -1.4856   -0.0143 H   0  0  0  0  0  0  0  0  0  0  0  0
   -3.0400   -0.4053    1.0073 H   0  0  0  0  0  0  0  0  0  0  0  0
   -1.4656   -0.9450    1.6283 H   0  0  0  0  0  0  0  0  0  0  0  0
    1.0494   -0.2898   -2.0619 H   0  0  0  0  0  0  0  0  0  0  0  0
    0.0557   -1.4319   -1.0935 H   0  0  0  0  0  0  0  0  0  0  0  0
    2.7977    1.0906    1.2064 H   0  0  0  0  0  0  0  0  0  0  0  0
  1  2  1  0
  2  3  1  0
  3  4  2  0
  4  5  1  0
  5  6  2  0
  6  7  1  0
  7  8  1  0
  8  9  2  0
  8 10  2  0
  8 11  1  0
  6  2  1  0
  1 12  1  0
  1 13  1  0
  1 14  1  0
  7 15  1  0
  7 16  1  0
 11 17  1  0
M  END
$$$$

     RDKit          3D

 17 17  0  0  0  0  0  0  0  0999 V2000
   -1.8423   -1.1022    0.4896 C   0  0  0  0  0  0  0  0  0  0  0  0
   -1.5381    0.3167    0.4848 N   0  0  0  0  0  0  0  0  0  0  0  0
   -2.2212    1.2540    1.1237 N   0  0  0  0  0  0  0  0  0  0  0  0
   -1.6961    2.4325    0.9219 N   0  0  0  0  0  0  0  0  0  0  0  0
   -0.6462    2.2658    0.1339 N   0  0  0  0  0  0  0  0  0  0  0  0
   -0.5373    0.9563   -0.1447 C   0  0  0  0  0  0  0  0  0  0  0  0
    0.4806    0.2827   -0.9867 C   0  0  0  0  0  0  0  0  0  0  0  0
    1.8933   -0.2165   -0.0304 S   0  0  0  0  0  6  0  0  0  0  0  0
    2.5553    0.9549    0.6096 O   0  0  0  0  0  0  0  0  0  0  0  0
    1.5111   -1.1986    1.0362 O   0  0  0  0  0  0  0  0  0  0  0  0
    2.9964   -0.9668   -1.0431 O   0  0  0  0  0  0  0  0  0  0  0  0
   -1.3109   -1.5360    1.3615 H   0  0  0  0  0  0  0  0  0  0  0  0
   -1.4544   -1.6259   -0.4080 H   0  0  0  0  0  0  0  0  0  0  0  0
   -2.9362   -1.2604    0.5828 H   0  0  0  0  0  0  0  0  0  0  0  0
    0.8094    0.9307   -1.8062 H   0  0  0  0  0  0  0  0  0  0  0  0
    0.0421   -0.6636   -1.4050 H   0  0  0  0  0  0  0  0  0  0  0  0
    3.8945   -0.8235   -0.6556 H   0  0  0  0  0  0  0  0  0  0  0  0
  1  2  1  0
  2  3  1  0
  3  4  2  0
  4  5  1  0
  5  6  2  0
  6  7  1  0
  7  8  1  0
  8  9  2  0
  8 10  2  0
  8 11  1  0
  6  2  1  0
  1 12  1  0
  1 13  1  0
  1 14  1  0
  7 15  1  0
  7 16  1  0
 11 17  1  0
M  END
$$$$
