
     RDKit          3D

 25 24  0  0  0  0  0  0  0  0999 V2000
   -0.6921   -1.5177    0.9379 C   0  0  0  0  0  0  0  0  0  0  0  0
   -0.3915   -0.7882   -0.3462 C   0  0  2  0  0  0  0  0  0  0  0  0
    0.7984    0.1351   -0.2154 C   0  0  1  0  0  0  0  0  0  0  0  0
    0.9871    0.8001   -1.5713 C   0  0  0  0  0  0  0  0  0  0  0  0
    0.5845    1.0637    0.7871 O   0  0  0  0  0  0  0  0  0  0  0  0
    2.0462   -0.5902    0.0714 C   0  0  0  0  0  0  0  0  0  0  0  0
    2.7919   -0.2744    1.2231 N   0  0  0  0  0  0  0  0  0  0  0  0
    2.4420   -1.4822   -0.7035 O   0  0  0  0  0  0  0  0  0  0  0  0
   -1.8135    0.1047   -0.8625 S   0  0  0  0  0  6  0  0  0  0  0  0
   -2.3153    1.3444    0.2760 C   0  0  0  0  0  0  0  0  0  0  0  0
   -2.9574   -0.8967   -0.9671 O   0  0  0  0  0  0  0  0  0  0  0  0
   -1.6575    0.7028   -2.2225 O   0  0  0  0  0  0  0  0  0  0  0  0
   -0.8850   -0.7980    1.7655 H   0  0  0  0  0  0  0  0  0  0  0  0
   -1.5561   -2.1659    0.7766 H   0  0  0  0  0  0  0  0  0  0  0  0
    0.1753   -2.1851    1.1887 H   0  0  0  0  0  0  0  0  0  0  0  0
   -0.1531   -1.5365   -1.1150 H   0  0  0  0  0  0  0  0  0  0  0  0
    0.7203    0.0380   -2.3312 H   0  0  0  0  0  0  0  0  0  0  0  0
    2.0582    1.0826   -1.6596 H   0  0  0  0  0  0  0  0  0  0  0  0
    0.3778    1.7136   -1.6717 H   0  0  0  0  0  0  0  0  0  0  0  0
    0.6818    0.5934    1.6468 H   0  0  0  0  0  0  0  0  0  0  0  0
    2.4099   -0.4407    2.1807 H   0  0  0  0  0  0  0  0  0  0  0  0
    3.7538    0.1373    1.1729 H   0  0  0  0  0  0  0  0  0  0  0  0
   -1.7822    1.3182    1.2395 H   0  0  0  0  0  0  0  0  0  0  0  0
   -2.2132    2.3773   -0.1420 H   0  0  0  0  0  0  0  0  0  0  0  0
   -3.4104    1.2644    0.5419 H   0  0  0  0  0  0  0  0  0  0  0  0
  1  2  1  0
  2  3  1  0
  3  4  1  0
  3  5  1  1
  3  6  1  0
  6  7  1  0
  6  8  2  0
  2  9  1  0
  9 10  1  0
  9 11  2  0
  9 12  2  0
  1 13  1  0
  1 14  1  0
  1 15  1  0
  2 16  1  6
  4 17  1  0
  4 18  1  0
  4 19  1  0
  5 20  1  0
  7 21  1  0
  7 22  1  0
 10 23  1  0
 10 24  1  0
 10 25  1  0
M  END
$$$$

     RDKit          3D

 25 24  0  0  0  0  0  0  0  0999 V2000
   -0.5698    1.4975   -0.0031 C   0  0  0  0  0  0  0  0  0  0  0  0
   -0.4468    0.0130    0.3022 C   0  0  2  0  0  0  0  0  0  0  0  0
    0.9408   -0.3809   -0.0310 C   0  0  1  0  0  0  0  0  0  0  0  0
    1.2999   -1.8083    0.1890 C   0  0  0  0  0  0  0  0  0  0  0  0
    1.2337   -0.0246   -1.3428 O   0  0  0  0  0  0  0  0  0  0  0  0
    1.8457    0.4196    0.8465 C   0  0  0  0  0  0  0  0  0  0  0  0
    2.7882    1.3400    0.3353 N   0  0  0  0  0  0  0  0  0  0  0  0
    1.7814    0.2826    2.1016 O   0  0  0  0  0  0  0  0  0  0  0  0
   -1.7326   -0.7854   -0.5490 S   0  0  0  0  0  6  0  0  0  0  0  0
   -3.2747   -0.0321   -0.0679 C   0  0  0  0  0  0  0  0  0  0  0  0
   -1.6014   -0.5502   -2.0426 O   0  0  0  0  0  0  0  0  0  0  0  0
   -1.8531   -2.2398   -0.3373 O   0  0  0  0  0  0  0  0  0  0  0  0
   -1.6287    1.7872   -0.1545 H   0  0  0  0  0  0  0  0  0  0  0  0
   -0.1783    2.1260    0.8201 H   0  0  0  0  0  0  0  0  0  0  0  0
   -0.0358    1.7237   -0.9674 H   0  0  0  0  0  0  0  0  0  0  0  0
   -0.5908   -0.0936    1.3992 H   0  0  0  0  0  0  0  0  0  0  0  0
    2.1677   -2.0464   -0.4728 H   0  0  0  0  0  0  0  0  0  0  0  0
    0.5218   -2.5353   -0.0188 H   0  0  0  0  0  0  0  0  0  0  0  0
    1.6662   -2.0057    1.2320 H   0  0  0  0  0  0  0  0  0  0  0  0
    2.0426   -0.4656   -1.6866 H   0  0  0  0  0  0  0  0  0  0  0  0
    3.7132    1.4750    0.7827 H   0  0  0  0  0  0  0  0  0  0  0  0
    2.5968    1.9260   -0.5157 H   0  0  0  0  0  0  0  0  0  0  0  0
   -4.1131   -0.7448   -0.2167 H   0  0  0  0  0  0  0  0  0  0  0  0
   -3.1642    0.2155    1.0221 H   0  0  0  0  0  0  0  0  0  0  0  0
   -3.4084    0.9068   -0.6245 H   0  0  0  0  0  0  0  0  0  0  0  0
  1  2  1  0
  2  3  1  0
  3  4  1  0
  3  5  1  6
  3  6  1  0
  6  7  1  0
  6  8  2  0
  2  9  1  0
  9 10  1  0
  9 11  2  0
  9 12  2  0
  1 13  1  0
  1 14  1  0
  1 15  1  0
  2 16  1  1
  4 17  1  0
  4 18  1  0
  4 19  1  0
  5 20  1  0
  7 21  1  0
  7 22  1  0
 10 23  1  0
 10 24  1  0
 10 25  1  0
M  END
$$$$

     RDKit          3D

 25 24  0  0  0  0  0  0  0  0999 V2000
    0.5565   -1.5837   -1.4331 C   0  0  0  0  0  0  0  0  0  0  0  0
    0.5560   -0.6779   -0.1721 C   0  0  2  0  0  0  0  0  0  0  0  0
   -0.8573   -0.2564   -0.0000 C   0  0  1  0  0  0  0  0  0  0  0  0
   -1.3688    0.5163   -1.2001 C   0  0  0  0  0  0  0  0  0  0  0  0
   -1.6103   -1.4713   -0.0208 O   0  0  0  0  0  0  0  0  0  0  0  0
   -1.2132    0.3993    1.2467 C   0  0  0  0  0  0  0  0  0  0  0  0
   -2.0873   -0.1758    2.2066 N   0  0  0  0  0  0  0  0  0  0  0  0
   -0.7451    1.5277    1.5217 O   0  0  0  0  0  0  0  0  0  0  0  0
    1.7229    0.5771   -0.5076 S   0  0  0  0  0  6  0  0  0  0  0  0
    2.1123    1.6327    0.8314 C   0  0  0  0  0  0  0  0  0  0  0  0
    3.0045   -0.1204   -0.9495 O   0  0  0  0  0  0  0  0  0  0  0  0
    1.2728    1.4326   -1.6737 O   0  0  0  0  0  0  0  0  0  0  0  0
    1.4693   -2.2049   -1.4382 H   0  0  0  0  0  0  0  0  0  0  0  0
    0.6389   -0.8787   -2.2841 H   0  0  0  0  0  0  0  0  0  0  0  0
   -0.3806   -2.1568   -1.4968 H   0  0  0  0  0  0  0  0  0  0  0  0
    0.9123   -1.3132    0.6547 H   0  0  0  0  0  0  0  0  0  0  0  0
   -2.4911    0.5468   -1.0671 H   0  0  0  0  0  0  0  0  0  0  0  0
   -1.2201   -0.0717   -2.1267 H   0  0  0  0  0  0  0  0  0  0  0  0
   -1.0163    1.5483   -1.2441 H   0  0  0  0  0  0  0  0  0  0  0  0
   -1.2418   -2.1104    0.6331 H   0  0  0  0  0  0  0  0  0  0  0  0
   -1.7955   -0.1194    3.2089 H   0  0  0  0  0  0  0  0  0  0  0  0
   -2.9958   -0.6443    1.9430 H   0  0  0  0  0  0  0  0  0  0  0  0
    3.2320    1.8140    0.8170 H   0  0  0  0  0  0  0  0  0  0  0  0
    1.9372    1.1626    1.8185 H   0  0  0  0  0  0  0  0  0  0  0  0
    1.6086    2.6276    0.7324 H   0  0  0  0  0  0  0  0  0  0  0  0
  1  2  1  0
  2  3  1  0
  3  4  1  0
  3  5  1  1
  3  6  1  0
  6  7  1  0
  6  8  2  0
  2  9  1  0
  9 10  1  0
  9 11  2  0
  9 12  2  0
  1 13  1  0
  1 14  1  0
  1 15  1  0
  2 16  1  1
  4 17  1  0
  4 18  1  0
  4 19  1  0
  5 20  1  0
  7 21  1  0
  7 22  1  0
 10 23  1  0
 10 24  1  0
 10 25  1  0
M  END
$$$$

     RDKit          3D

 25 24  0  0  0  0  0  0  0  0999 V2000
   -0.4711    1.4104   -1.2767 C   0  0  0  0  0  0  0  0  0  0  0  0
    0.3583    0.3007   -0.7080 C   0  0  2  0  0  0  0  0  0  0  0  0
   -0.4432   -0.7660   -0.0197 C   0  0  1  0  0  0  0  0  0  0  0  0
   -1.3921   -1.3461   -1.0763 C   0  0  0  0  0  0  0  0  0  0  0  0
    0.4342   -1.8033    0.2993 O   0  0  0  0  0  0  0  0  0  0  0  0
   -1.1770   -0.2841    1.1568 C   0  0  0  0  0  0  0  0  0  0  0  0
   -2.1308    0.7645    1.1050 N   0  0  0  0  0  0  0  0  0  0  0  0
   -0.9469   -0.8301    2.2660 O   0  0  0  0  0  0  0  0  0  0  0  0
    1.6337    0.9642    0.3263 S   0  0  0  0  0  6  0  0  0  0  0  0
    2.7138   -0.3201    0.9137 C   0  0  0  0  0  0  0  0  0  0  0  0
    1.0947    1.6926    1.5048 O   0  0  0  0  0  0  0  0  0  0  0  0
    2.4701    1.9107   -0.4808 O   0  0  0  0  0  0  0  0  0  0  0  0
   -1.2851    0.9807   -1.8937 H   0  0  0  0  0  0  0  0  0  0  0  0
   -0.9395    2.0467   -0.5075 H   0  0  0  0  0  0  0  0  0  0  0  0
    0.2032    2.0069   -1.9478 H   0  0  0  0  0  0  0  0  0  0  0  0
    0.8760   -0.1952   -1.5701 H   0  0  0  0  0  0  0  0  0  0  0  0
   -1.6912   -2.3734   -0.7819 H   0  0  0  0  0  0  0  0  0  0  0  0
   -2.2491   -0.7033   -1.2646 H   0  0  0  0  0  0  0  0  0  0  0  0
   -0.7960   -1.4474   -2.0146 H   0  0  0  0  0  0  0  0  0  0  0  0
   -0.0542   -2.5382    0.7268 H   0  0  0  0  0  0  0  0  0  0  0  0
   -2.1615    1.5043    1.8397 H   0  0  0  0  0  0  0  0  0  0  0  0
   -2.8441    0.8536    0.3413 H   0  0  0  0  0  0  0  0  0  0  0  0
    2.9509   -1.0410    0.0788 H   0  0  0  0  0  0  0  0  0  0  0  0
    3.6593    0.1264    1.2891 H   0  0  0  0  0  0  0  0  0  0  0  0
    2.1877   -0.9135    1.6941 H   0  0  0  0  0  0  0  0  0  0  0  0
  1  2  1  0
  2  3  1  0
  3  4  1  0
  3  5  1  1
  3  6  1  0
  6  7  1  0
  6  8  2  0
  2  9  1  0
  9 10  1  0
  9 11  2  0
  9 12  2  0
  1 13  1  0
  1 14  1  0
  1 15  1  0
  2 16  1  6
  4 17  1  0
  4 18  1  0
  4 19  1  0
  5 20  1  0
  7 21  1  0
  7 22  1  0
 10 23  1  0
 10 24  1  0
 10 25  1  0
M  END
$$$$

     RDKit          3D

 25 24  0  0  0  0  0  0  0  0999 V2000
    0.0880   -1.4508   -1.0139 C   0  0  0  0  0  0  0  0  0  0  0  0
    0.4680   -0.8069    0.3023 C   0  0  2  0  0  0  0  0  0  0  0  0
   -0.6274    0.0180    0.8985 C   0  0  1  0  0  0  0  0  0  0  0  0
   -1.8113   -0.9354    1.1258 C   0  0  0  0  0  0  0  0  0  0  0  0
   -0.2283    0.4400    2.1430 O   0  0  0  0  0  0  0  0  0  0  0  0
   -1.1179    1.1159    0.0854 C   0  0  0  0  0  0  0  0  0  0  0  0
   -1.6016    1.0082   -1.2447 N   0  0  0  0  0  0  0  0  0  0  0  0
   -1.1281    2.2763    0.5731 O   0  0  0  0  0  0  0  0  0  0  0  0
    2.0251    0.0019    0.1978 S   0  0  0  0  0  6  0  0  0  0  0  0
    2.0806    1.3933   -0.8367 C   0  0  0  0  0  0  0  0  0  0  0  0
    3.0152   -1.0266   -0.3390 O   0  0  0  0  0  0  0  0  0  0  0  0
    2.5360    0.3724    1.5634 O   0  0  0  0  0  0  0  0  0  0  0  0
    0.9496   -2.1179   -1.2872 H   0  0  0  0  0  0  0  0  0  0  0  0
   -0.7795   -2.1189   -0.8932 H   0  0  0  0  0  0  0  0  0  0  0  0
   -0.0095   -0.7324   -1.8390 H   0  0  0  0  0  0  0  0  0  0  0  0
    0.6090   -1.6654    0.9989 H   0  0  0  0  0  0  0  0  0  0  0  0
   -1.4397   -1.9683    1.2502 H   0  0  0  0  0  0  0  0  0  0  0  0
   -2.3516   -0.6770    2.0517 H   0  0  0  0  0  0  0  0  0  0  0  0
   -2.5253   -0.8982    0.2859 H   0  0  0  0  0  0  0  0  0  0  0  0
   -0.9816    0.5683    2.7894 H   0  0  0  0  0  0  0  0  0  0  0  0
   -2.3462    0.3221   -1.5247 H   0  0  0  0  0  0  0  0  0  0  0  0
   -1.2323    1.6147   -2.0099 H   0  0  0  0  0  0  0  0  0  0  0  0
    2.6848    1.2184   -1.7698 H   0  0  0  0  0  0  0  0  0  0  0  0
    1.1163    1.7886   -1.1707 H   0  0  0  0  0  0  0  0  0  0  0  0
    2.6077    2.2597   -0.3365 H   0  0  0  0  0  0  0  0  0  0  0  0
  1  2  1  0
  2  3  1  0
  3  4  1  0
  3  5  1  1
  3  6  1  0
  6  7  1  0
  6  8  2  0
  2  9  1  0
  9 10  1  0
  9 11  2  0
  9 12  2  0
  1 13  1  0
  1 14  1  0
  1 15  1  0
  2 16  1  1
  4 17  1  0
  4 18  1  0
  4 19  1  0
  5 20  1  0
  7 21  1  0
  7 22  1  0
 10 23  1  0
 10 24  1  0
 10 25  1  0
M  END
$$$$

     RDKit          3D

 25 24  0  0  0  0  0  0  0  0999 V2000
   -1.1036   -1.0986   -0.9121 C   0  0  0  0  0  0  0  0  0  0  0  0
   -0.3945    0.1438   -0.4143 C   0  0  2  0  0  0  0  0  0  0  0  0
    1.0321   -0.2352   -0.1316 C   0  0  1  0  0  0  0  0  0  0  0  0
    1.1303   -1.3231    0.9217 C   0  0  0  0  0  0  0  0  0  0  0  0
    1.5131   -0.7528   -1.3587 O   0  0  0  0  0  0  0  0  0  0  0  0
    1.9032    0.8821    0.2304 C   0  0  0  0  0  0  0  0  0  0  0  0
    2.9651    1.2664   -0.6072 N   0  0  0  0  0  0  0  0  0  0  0  0
    1.7119    1.5075    1.2897 O   0  0  0  0  0  0  0  0  0  0  0  0
   -1.3034    0.7071    0.9795 S   0  0  0  0  0  6  0  0  0  0  0  0
   -2.9806    0.9897    0.3818 C   0  0  0  0  0  0  0  0  0  0  0  0
   -1.3888   -0.3064    2.0586 O   0  0  0  0  0  0  0  0  0  0  0  0
   -0.8392    2.0339    1.5096 O   0  0  0  0  0  0  0  0  0  0  0  0
   -0.4292   -1.8089   -1.4129 H   0  0  0  0  0  0  0  0  0  0  0  0
   -1.5770   -1.6253   -0.0414 H   0  0  0  0  0  0  0  0  0  0  0  0
   -1.9274   -0.7613   -1.5608 H   0  0  0  0  0  0  0  0  0  0  0  0
   -0.4119    0.9165   -1.1843 H   0  0  0  0  0  0  0  0  0  0  0  0
    0.2855   -2.0093    0.8956 H   0  0  0  0  0  0  0  0  0  0  0  0
    2.0827   -1.8580    0.7534 H   0  0  0  0  0  0  0  0  0  0  0  0
    1.2063   -0.8471    1.9410 H   0  0  0  0  0  0  0  0  0  0  0  0
    1.6884   -1.7214   -1.2844 H   0  0  0  0  0  0  0  0  0  0  0  0
    3.2214    2.2757   -0.6559 H   0  0  0  0  0  0  0  0  0  0  0  0
    3.5193    0.5989   -1.1896 H   0  0  0  0  0  0  0  0  0  0  0  0
   -2.8870    1.5152   -0.5924 H   0  0  0  0  0  0  0  0  0  0  0  0
   -3.4318   -0.0122    0.1231 H   0  0  0  0  0  0  0  0  0  0  0  0
   -3.5850    1.5228    1.1130 H   0  0  0  0  0  0  0  0  0  0  0  0
  1  2  1  0
  2  3  1  0
  3  4  1  0
  3  5  1  6
  3  6  1  0
  6  7  1  0
  6  8  2  0
  2  9  1  0
  9 10  1  0
  9 11  2  0
  9 12  2  0
  1 13  1  0
  1 14  1  0
  1 15  1  0
  2 16  1  6
  4 17  1  0
  4 18  1  0
  4 19  1  0
  5 20  1  0
  7 21  1  0
  7 22  1  0
 10 23  1  0
 10 24  1  0
 10 25  1  0
M  END
$$$$

     RDKit          3D

 25 24  0  0  0  0  0  0  0  0999 V2000
    0.3150    1.5046   -1.2695 C   0  0  0  0  0  0  0  0  0  0  0  0
   -0.4950    0.6800   -0.3266 C   0  0  2  0  0  0  0  0  0  0  0  0
    0.2853    0.0927    0.8102 C   0  0  1  0  0  0  0  0  0  0  0  0
    0.8876    1.2459    1.5897 C   0  0  0  0  0  0  0  0  0  0  0  0
   -0.6188   -0.5341    1.6613 O   0  0  0  0  0  0  0  0  0  0  0  0
    1.3262   -0.8443    0.4189 C   0  0  0  0  0  0  0  0  0  0  0  0
    2.4112   -0.5576   -0.4380 N   0  0  0  0  0  0  0  0  0  0  0  0
    1.2844   -2.0214    0.8662 O   0  0  0  0  0  0  0  0  0  0  0  0
   -1.3820   -0.5784   -1.2300 S   0  0  0  0  0  6  0  0  0  0  0  0
   -2.4313   -1.4905   -0.1008 C   0  0  0  0  0  0  0  0  0  0  0  0
   -2.2700    0.0172   -2.2639 O   0  0  0  0  0  0  0  0  0  0  0  0
   -0.3862   -1.5454   -1.7839 O   0  0  0  0  0  0  0  0  0  0  0  0
    1.1975    1.9811   -0.7939 H   0  0  0  0  0  0  0  0  0  0  0  0
   -0.3252    2.3201   -1.6701 H   0  0  0  0  0  0  0  0  0  0  0  0
    0.6802    0.9380   -2.1521 H   0  0  0  0  0  0  0  0  0  0  0  0
   -1.2766    1.3394    0.1237 H   0  0  0  0  0  0  0  0  0  0  0  0
    0.8771    0.9921    2.6796 H   0  0  0  0  0  0  0  0  0  0  0  0
    0.3551    2.1776    1.3894 H   0  0  0  0  0  0  0  0  0  0  0  0
    1.9557    1.3060    1.2961 H   0  0  0  0  0  0  0  0  0  0  0  0
   -0.1402   -1.1445    2.2741 H   0  0  0  0  0  0  0  0  0  0  0  0
    2.5175   -1.0891   -1.3125 H   0  0  0  0  0  0  0  0  0  0  0  0
    3.0908    0.1755   -0.1927 H   0  0  0  0  0  0  0  0  0  0  0  0
   -2.7893   -0.7736    0.6508 H   0  0  0  0  0  0  0  0  0  0  0  0
   -1.8111   -2.2486    0.4412 H   0  0  0  0  0  0  0  0  0  0  0  0
   -3.2580   -1.9429   -0.6672 H   0  0  0  0  0  0  0  0  0  0  0  0
  1  2  1  0
  2  3  1  0
  3  4  1  0
  3  5  1  1
  3  6  1  0
  6  7  1  0
  6  8  2  0
  2  9  1  0
  9 10  1  0
  9 11  2  0
  9 12  2  0
  1 13  1  0
  1 14  1  0
  1 15  1  0
  2 16  1  1
  4 17  1  0
  4 18  1  0
  4 19  1  0
  5 20  1  0
  7 21  1  0
  7 22  1  0
 10 23  1  0
 10 24  1  0
 10 25  1  0
M  END
$$$$

     RDKit          3D

 25 24  0  0  0  0  0  0  0  0999 V2000
    0.3716   -1.8404   -0.6331 C   0  0  0  0  0  0  0  0  0  0  0  0
   -0.2969   -0.4572   -0.5618 C   0  0  2  0  0  0  0  0  0  0  0  0
    0.6068    0.3842    0.2856 C   0  0  1  0  0  0  0  0  0  0  0  0
    0.1189    1.7903    0.4757 C   0  0  0  0  0  0  0  0  0  0  0  0
    0.7686   -0.2258    1.5062 O   0  0  0  0  0  0  0  0  0  0  0  0
    1.9198    0.4770   -0.4433 C   0  0  0  0  0  0  0  0  0  0  0  0
    3.1295   -0.0183    0.1098 N   0  0  0  0  0  0  0  0  0  0  0  0
    1.9745    1.0066   -1.5820 O   0  0  0  0  0  0  0  0  0  0  0  0
   -1.8927   -0.7064    0.1104 S   0  0  0  0  0  6  0  0  0  0  0  0
   -2.8987    0.7285    0.1345 C   0  0  0  0  0  0  0  0  0  0  0  0
   -1.7497   -1.3254    1.4765 O   0  0  0  0  0  0  0  0  0  0  0  0
   -2.5860   -1.7534   -0.7472 O   0  0  0  0  0  0  0  0  0  0  0  0
   -0.4013   -2.5457   -0.9725 H   0  0  0  0  0  0  0  0  0  0  0  0
    0.6154   -2.0947    0.4271 H   0  0  0  0  0  0  0  0  0  0  0  0
    1.2592   -1.8026   -1.2657 H   0  0  0  0  0  0  0  0  0  0  0  0
   -0.3295   -0.1047   -1.6170 H   0  0  0  0  0  0  0  0  0  0  0  0
    0.9188    2.3372    1.0335 H   0  0  0  0  0  0  0  0  0  0  0  0
   -0.0526    2.2839   -0.5140 H   0  0  0  0  0  0  0  0  0  0  0  0
   -0.7874    1.8541    1.0792 H   0  0  0  0  0  0  0  0  0  0  0  0
    1.6520   -0.6585    1.6303 H   0  0  0  0  0  0  0  0  0  0  0  0
    3.6766   -0.7444   -0.4030 H   0  0  0  0  0  0  0  0  0  0  0  0
    3.5249    0.3025    1.0239 H   0  0  0  0  0  0  0  0  0  0  0  0
   -2.5439    1.5444   -0.5269 H   0  0  0  0  0  0  0  0  0  0  0  0
   -3.0566    1.0739    1.1882 H   0  0  0  0  0  0  0  0  0  0  0  0
   -3.9412    0.4949   -0.2342 H   0  0  0  0  0  0  0  0  0  0  0  0
  1  2  1  0
  2  3  1  0
  3  4  1  0
  3  5  1  1
  3  6  1  0
  6  7  1  0
  6  8  2  0
  2  9  1  0
  9 10  1  0
  9 11  2  0
  9 12  2  0
  1 13  1  0
  1 14  1  0
  1 15  1  0
  2 16  1  6
  4 17  1  0
  4 18  1  0
  4 19  1  0
  5 20  1  0
  7 21  1  0
  7 22  1  0
 10 23  1  0
 10 24  1  0
 10 25  1  0
M  END
$$$$
