
     RDKit          3D

 28 28  0  0  0  0  0  0  0  0999 V2000
   -1.3170   -0.7985   -1.5177 C   0  0  0  0  0  0  0  0  0  0  0  0
   -0.8963   -0.1941   -0.2147 C   0  0  2  0  0  0  0  0  0  0  0  0
   -0.9709   -1.1833    0.9324 C   0  0  0  0  0  0  0  0  0  0  0  0
   -2.2443   -1.6975    1.1104 O   0  0  0  0  0  0  0  0  0  0  0  0
   -1.8235    0.9551    0.1456 C   0  0  0  0  0  0  0  0  0  0  0  0
   -1.3069    1.7786    1.1101 O   0  0  0  0  0  0  0  0  0  0  0  0
   -0.1159    2.3673    0.8288 C   0  0  0  0  0  0  0  0  0  0  0  0
    0.7166    1.6949   -0.2065 C   0  0  0  0  0  0  0  0  0  0  0  0
    0.4517    0.2693   -0.3073 N   0  0  0  0  0  0  0  0  0  0  0  0
    1.5154   -0.6494   -0.4949 C   0  0  0  0  0  0  0  0  0  0  0  0
    1.7708   -1.2049   -1.6220 N   0  0  0  0  0  0  0  0  0  0  0  0
    2.3381   -0.9709    0.6165 N   0  0  0  0  0  0  0  0  0  0  0  0
    3.5550   -1.5458    0.4804 O   0  0  0  0  0  0  0  0  0  0  0  0
   -0.5001   -0.8868   -2.2596 H   0  0  0  0  0  0  0  0  0  0  0  0
   -1.7685   -1.8104   -1.3985 H   0  0  0  0  0  0  0  0  0  0  0  0
   -2.1004   -0.1678   -2.0091 H   0  0  0  0  0  0  0  0  0  0  0  0
   -0.2103   -1.9709    0.8300 H   0  0  0  0  0  0  0  0  0  0  0  0
   -0.7249   -0.6034    1.8606 H   0  0  0  0  0  0  0  0  0  0  0  0
   -2.8400   -1.5678    0.3357 H   0  0  0  0  0  0  0  0  0  0  0  0
   -2.1777    1.4851   -0.7670 H   0  0  0  0  0  0  0  0  0  0  0  0
   -2.7394    0.4717    0.5784 H   0  0  0  0  0  0  0  0  0  0  0  0
    0.4616    2.4496    1.7924 H   0  0  0  0  0  0  0  0  0  0  0  0
   -0.2563    3.4398    0.5068 H   0  0  0  0  0  0  0  0  0  0  0  0
    0.6327    2.1804   -1.2135 H   0  0  0  0  0  0  0  0  0  0  0  0
    1.8033    1.8238    0.0714 H   0  0  0  0  0  0  0  0  0  0  0  0
    2.5265   -1.8706   -1.7973 H   0  0  0  0  0  0  0  0  0  0  0  0
    2.0171   -0.7678    1.5748 H   0  0  0  0  0  0  0  0  0  0  0  0
    4.2038   -1.0259    1.0342 H   0  0  0  0  0  0  0  0  0  0  0  0
  2  1  1  6
  2  3  1  0
  3  4  1  0
  2  5  1  0
  5  6  1  0
  6  7  1  0
  7  8  1  0
  8  9  1  0
  9 10  1  0
 10 11  2  3
 10 12  1  0
 12 13  1  0
  9  2  1  0
  1 14  1  0
  1 15  1  0
  1 16  1  0
  3 17  1  0
  3 18  1  0
  4 19  1  0
  5 20  1  0
  5 21  1  0
  7 22  1  0
  7 23  1  0
  8 24  1  0
  8 25  1  0
 11 26  1  0
 12 27  1  0
 13 28  1  0
M  END
$$$$

     RDKit          3D

 28 28  0  0  0  0  0  0  0  0999 V2000
   -1.0925   -1.0078   -1.3734 C   0  0  0  0  0  0  0  0  0  0  0  0
   -0.9061   -0.1210   -0.1539 C   0  0  2  0  0  0  0  0  0  0  0  0
   -1.3909   -0.9455    1.0418 C   0  0  0  0  0  0  0  0  0  0  0  0
   -0.5788   -2.0589    1.1196 O   0  0  0  0  0  0  0  0  0  0  0  0
   -1.7987    1.0820   -0.3479 C   0  0  0  0  0  0  0  0  0  0  0  0
   -1.4919    2.1278    0.5018 O   0  0  0  0  0  0  0  0  0  0  0  0
   -0.2101    2.5848    0.1205 C   0  0  0  0  0  0  0  0  0  0  0  0
    0.7724    1.5698    0.6342 C   0  0  0  0  0  0  0  0  0  0  0  0
    0.4729    0.2848    0.0176 N   0  0  0  0  0  0  0  0  0  0  0  0
    1.5696   -0.5122   -0.3882 C   0  0  0  0  0  0  0  0  0  0  0  0
    1.8137   -0.6833   -1.6420 N   0  0  0  0  0  0  0  0  0  0  0  0
    2.4325   -1.1461    0.5446 N   0  0  0  0  0  0  0  0  0  0  0  0
    3.4069   -2.0077    0.1765 O   0  0  0  0  0  0  0  0  0  0  0  0
   -2.0760   -1.5380   -1.2117 H   0  0  0  0  0  0  0  0  0  0  0  0
   -0.3347   -1.8184   -1.4232 H   0  0  0  0  0  0  0  0  0  0  0  0
   -1.1796   -0.4222   -2.2973 H   0  0  0  0  0  0  0  0  0  0  0  0
   -2.4536   -1.1748    0.8750 H   0  0  0  0  0  0  0  0  0  0  0  0
   -1.2569   -0.3458    1.9600 H   0  0  0  0  0  0  0  0  0  0  0  0
   -1.0576   -2.9128    0.9769 H   0  0  0  0  0  0  0  0  0  0  0  0
   -2.8587    0.8055   -0.1790 H   0  0  0  0  0  0  0  0  0  0  0  0
   -1.6735    1.4099   -1.4125 H   0  0  0  0  0  0  0  0  0  0  0  0
   -0.1749    2.6294   -0.9784 H   0  0  0  0  0  0  0  0  0  0  0  0
   -0.0682    3.5718    0.5945 H   0  0  0  0  0  0  0  0  0  0  0  0
    1.7784    1.9057    0.3617 H   0  0  0  0  0  0  0  0  0  0  0  0
    0.7037    1.4827    1.7334 H   0  0  0  0  0  0  0  0  0  0  0  0
    1.2135   -0.2419   -2.3729 H   0  0  0  0  0  0  0  0  0  0  0  0
    2.3394   -0.9603    1.5868 H   0  0  0  0  0  0  0  0  0  0  0  0
    4.0996   -1.5576   -0.3796 H   0  0  0  0  0  0  0  0  0  0  0  0
  2  1  1  6
  2  3  1  0
  3  4  1  0
  2  5  1  0
  5  6  1  0
  6  7  1  0
  7  8  1  0
  8  9  1  0
  9 10  1  0
 10 11  2  3
 10 12  1  0
 12 13  1  0
  9  2  1  0
  1 14  1  0
  1 15  1  0
  1 16  1  0
  3 17  1  0
  3 18  1  0
  4 19  1  0
  5 20  1  0
  5 21  1  0
  7 22  1  0
  7 23  1  0
  8 24  1  0
  8 25  1  0
 11 26  1  0
 12 27  1  0
 13 28  1  0
M  END
$$$$

     RDKit          3D

 28 28  0  0  0  0  0  0  0  0999 V2000
   -0.8559    0.2989    1.7729 C   0  0  0  0  0  0  0  0  0  0  0  0
   -0.8555    0.0543    0.2876 C   0  0  2  0  0  0  0  0  0  0  0  0
   -1.7015    1.1060   -0.3675 C   0  0  0  0  0  0  0  0  0  0  0  0
   -1.8445    0.8851   -1.7409 O   0  0  0  0  0  0  0  0  0  0  0  0
   -1.4993   -1.2985    0.0074 C   0  0  0  0  0  0  0  0  0  0  0  0
   -0.6085   -2.3122    0.3656 O   0  0  0  0  0  0  0  0  0  0  0  0
    0.3242   -2.4285   -0.6486 C   0  0  0  0  0  0  0  0  0  0  0  0
    0.7627   -1.0827   -1.1855 C   0  0  0  0  0  0  0  0  0  0  0  0
    0.4845   -0.0004   -0.2639 N   0  0  0  0  0  0  0  0  0  0  0  0
    1.5042    0.9319    0.0498 C   0  0  0  0  0  0  0  0  0  0  0  0
    1.5566    2.0282   -0.6095 N   0  0  0  0  0  0  0  0  0  0  0  0
    2.4853    0.7299    1.0598 N   0  0  0  0  0  0  0  0  0  0  0  0
    3.6238    1.4303    1.1554 O   0  0  0  0  0  0  0  0  0  0  0  0
   -0.7288    1.3680    2.0043 H   0  0  0  0  0  0  0  0  0  0  0  0
   -0.0712   -0.2971    2.2890 H   0  0  0  0  0  0  0  0  0  0  0  0
   -1.8323   -0.0156    2.1977 H   0  0  0  0  0  0  0  0  0  0  0  0
   -1.2636    2.1126   -0.1943 H   0  0  0  0  0  0  0  0  0  0  0  0
   -2.7051    1.0622    0.0944 H   0  0  0  0  0  0  0  0  0  0  0  0
   -2.5352    1.5108   -2.0797 H   0  0  0  0  0  0  0  0  0  0  0  0
   -2.4600   -1.3934    0.5501 H   0  0  0  0  0  0  0  0  0  0  0  0
   -1.6550   -1.3380   -1.0928 H   0  0  0  0  0  0  0  0  0  0  0  0
   -0.0825   -3.0274   -1.5148 H   0  0  0  0  0  0  0  0  0  0  0  0
    1.2269   -2.9734   -0.2897 H   0  0  0  0  0  0  0  0  0  0  0  0
    0.2422   -0.8445   -2.1413 H   0  0  0  0  0  0  0  0  0  0  0  0
    1.8464   -1.0886   -1.4154 H   0  0  0  0  0  0  0  0  0  0  0  0
    0.8537    2.2026   -1.3520 H   0  0  0  0  0  0  0  0  0  0  0  0
    2.3019   -0.0209    1.7789 H   0  0  0  0  0  0  0  0  0  0  0  0
    3.4867    2.4003    1.2828 H   0  0  0  0  0  0  0  0  0  0  0  0
  2  1  1  1
  2  3  1  0
  3  4  1  0
  2  5  1  0
  5  6  1  0
  6  7  1  0
  7  8  1  0
  8  9  1  0
  9 10  1  0
 10 11  2  3
 10 12  1  0
 12 13  1  0
  9  2  1  0
  1 14  1  0
  1 15  1  0
  1 16  1  0
  3 17  1  0
  3 18  1  0
  4 19  1  0
  5 20  1  0
  5 21  1  0
  7 22  1  0
  7 23  1  0
  8 24  1  0
  8 25  1  0
 11 26  1  0
 12 27  1  0
 13 28  1  0
M  END
$$$$

     RDKit          3D

 28 28  0  0  0  0  0  0  0  0999 V2000
   -1.2278    0.3938    1.6691 C   0  0  0  0  0  0  0  0  0  0  0  0
   -0.9083    0.0932    0.2286 C   0  0  2  0  0  0  0  0  0  0  0  0
   -0.9987    1.3740   -0.5528 C   0  0  0  0  0  0  0  0  0  0  0  0
   -2.2842    1.9096   -0.5472 O   0  0  0  0  0  0  0  0  0  0  0  0
   -1.8038   -0.9808   -0.3384 C   0  0  0  0  0  0  0  0  0  0  0  0
   -1.5147   -2.2039    0.2139 O   0  0  0  0  0  0  0  0  0  0  0  0
   -0.2312   -2.6521   -0.0285 C   0  0  0  0  0  0  0  0  0  0  0  0
    0.7071   -1.7082    0.7347 C   0  0  0  0  0  0  0  0  0  0  0  0
    0.4555   -0.3801    0.1629 N   0  0  0  0  0  0  0  0  0  0  0  0
    1.5092    0.3553   -0.4061 C   0  0  0  0  0  0  0  0  0  0  0  0
    1.7857    0.2994   -1.6693 N   0  0  0  0  0  0  0  0  0  0  0  0
    2.3010    1.1881    0.4205 N   0  0  0  0  0  0  0  0  0  0  0  0
    3.5857    1.5170    0.1034 O   0  0  0  0  0  0  0  0  0  0  0  0
   -0.5596    1.1989    2.0126 H   0  0  0  0  0  0  0  0  0  0  0  0
   -1.1449   -0.4921    2.3208 H   0  0  0  0  0  0  0  0  0  0  0  0
   -2.2715    0.7910    1.7309 H   0  0  0  0  0  0  0  0  0  0  0  0
   -0.3080    2.1047   -0.1049 H   0  0  0  0  0  0  0  0  0  0  0  0
   -0.6797    1.2257   -1.6070 H   0  0  0  0  0  0  0  0  0  0  0  0
   -2.2265    2.8467   -0.8632 H   0  0  0  0  0  0  0  0  0  0  0  0
   -2.8685   -0.7730   -0.1904 H   0  0  0  0  0  0  0  0  0  0  0  0
   -1.5991   -1.0065   -1.4430 H   0  0  0  0  0  0  0  0  0  0  0  0
   -0.1125   -3.6526    0.3929 H   0  0  0  0  0  0  0  0  0  0  0  0
    0.0463   -2.6015   -1.0998 H   0  0  0  0  0  0  0  0  0  0  0  0
    0.4030   -1.7288    1.7895 H   0  0  0  0  0  0  0  0  0  0  0  0
    1.7537   -1.9790    0.5880 H   0  0  0  0  0  0  0  0  0  0  0  0
    2.5544    0.8357   -2.0858 H   0  0  0  0  0  0  0  0  0  0  0  0
    1.8812    1.5615    1.3039 H   0  0  0  0  0  0  0  0  0  0  0  0
    3.7562    2.4640    0.3391 H   0  0  0  0  0  0  0  0  0  0  0  0
  2  1  1  1
  2  3  1  0
  3  4  1  0
  2  5  1  0
  5  6  1  0
  6  7  1  0
  7  8  1  0
  8  9  1  0
  9 10  1  0
 10 11  2  3
 10 12  1  0
 12 13  1  0
  9  2  1  0
  1 14  1  0
  1 15  1  0
  1 16  1  0
  3 17  1  0
  3 18  1  0
  4 19  1  0
  5 20  1  0
  5 21  1  0
  7 22  1  0
  7 23  1  0
  8 24  1  0
  8 25  1  0
 11 26  1  0
 12 27  1  0
 13 28  1  0
M  END
$$$$

     RDKit          3D

 28 28  0  0  0  0  0  0  0  0999 V2000
   -1.6446    0.0146    1.1864 C   0  0  0  0  0  0  0  0  0  0  0  0
   -0.9898   -0.0967   -0.1655 C   0  0  2  0  0  0  0  0  0  0  0  0
   -1.4939    1.0178   -1.0280 C   0  0  0  0  0  0  0  0  0  0  0  0
   -1.1539    2.2553   -0.5072 O   0  0  0  0  0  0  0  0  0  0  0  0
   -1.3880   -1.4258   -0.7736 C   0  0  0  0  0  0  0  0  0  0  0  0
   -0.2914   -1.9883   -1.4427 O   0  0  0  0  0  0  0  0  0  0  0  0
    0.5978   -2.4795   -0.4730 C   0  0  0  0  0  0  0  0  0  0  0  0
    1.0212   -1.3690    0.4579 C   0  0  0  0  0  0  0  0  0  0  0  0
    0.4385   -0.1015   -0.0133 N   0  0  0  0  0  0  0  0  0  0  0  0
    1.2700    1.0194   -0.2882 C   0  0  0  0  0  0  0  0  0  0  0  0
    1.2718    1.6025   -1.4358 N   0  0  0  0  0  0  0  0  0  0  0  0
    2.1210    1.5064    0.7349 N   0  0  0  0  0  0  0  0  0  0  0  0
    3.2251    2.2698    0.4614 O   0  0  0  0  0  0  0  0  0  0  0  0
   -1.0026   -0.3980    1.9712 H   0  0  0  0  0  0  0  0  0  0  0  0
   -1.9141    1.0778    1.3920 H   0  0  0  0  0  0  0  0  0  0  0  0
   -2.6046   -0.5659    1.1464 H   0  0  0  0  0  0  0  0  0  0  0  0
   -1.1586    0.9209   -2.0929 H   0  0  0  0  0  0  0  0  0  0  0  0
   -2.6114    0.9480   -1.0305 H   0  0  0  0  0  0  0  0  0  0  0  0
   -1.9351    2.8561   -0.4094 H   0  0  0  0  0  0  0  0  0  0  0  0
   -1.7104   -2.1651   -0.0211 H   0  0  0  0  0  0  0  0  0  0  0  0
   -2.1959   -1.3093   -1.5388 H   0  0  0  0  0  0  0  0  0  0  0  0
    0.1484   -3.3110    0.1060 H   0  0  0  0  0  0  0  0  0  0  0  0
    1.5041   -2.8315   -1.0356 H   0  0  0  0  0  0  0  0  0  0  0  0
    2.1189   -1.2536    0.4676 H   0  0  0  0  0  0  0  0  0  0  0  0
    0.6728   -1.4975    1.4826 H   0  0  0  0  0  0  0  0  0  0  0  0
    1.8787    2.4136   -1.6224 H   0  0  0  0  0  0  0  0  0  0  0  0
    1.8942    1.2734    1.7178 H   0  0  0  0  0  0  0  0  0  0  0  0
    3.9318    1.6172    0.2120 H   0  0  0  0  0  0  0  0  0  0  0  0
  2  1  1  1
  2  3  1  0
  3  4  1  0
  2  5  1  0
  5  6  1  0
  6  7  1  0
  7  8  1  0
  8  9  1  0
  9 10  1  0
 10 11  2  3
 10 12  1  0
 12 13  1  0
  9  2  1  0
  1 14  1  0
  1 15  1  0
  1 16  1  0
  3 17  1  0
  3 18  1  0
  4 19  1  0
  5 20  1  0
  5 21  1  0
  7 22  1  0
  7 23  1  0
  8 24  1  0
  8 25  1  0
 11 26  1  0
 12 27  1  0
 13 28  1  0
M  END
$$$$

     RDKit          3D

 28 28  0  0  0  0  0  0  0  0999 V2000
   -0.7146   -1.0831   -1.4590 C   0  0  0  0  0  0  0  0  0  0  0  0
   -0.8840   -0.2387   -0.2458 C   0  0  2  0  0  0  0  0  0  0  0  0
   -1.3516   -0.9811    0.9689 C   0  0  0  0  0  0  0  0  0  0  0  0
   -2.5703   -1.5786    0.8494 O   0  0  0  0  0  0  0  0  0  0  0  0
   -1.7776    0.9293   -0.5566 C   0  0  0  0  0  0  0  0  0  0  0  0
   -1.8123    1.8704    0.4557 O   0  0  0  0  0  0  0  0  0  0  0  0
   -0.5833    2.3453    0.8303 C   0  0  0  0  0  0  0  0  0  0  0  0
    0.5631    1.7547    0.0401 C   0  0  0  0  0  0  0  0  0  0  0  0
    0.4323    0.3238    0.0855 N   0  0  0  0  0  0  0  0  0  0  0  0
    1.5374   -0.4818    0.4364 C   0  0  0  0  0  0  0  0  0  0  0  0
    1.7498   -0.7381    1.6735 N   0  0  0  0  0  0  0  0  0  0  0  0
    2.4169   -1.0148   -0.5312 N   0  0  0  0  0  0  0  0  0  0  0  0
    3.6389   -1.5360   -0.2275 O   0  0  0  0  0  0  0  0  0  0  0  0
   -0.1002   -0.4882   -2.1940 H   0  0  0  0  0  0  0  0  0  0  0  0
   -1.6664   -1.2954   -1.9936 H   0  0  0  0  0  0  0  0  0  0  0  0
   -0.1301   -2.0029   -1.2651 H   0  0  0  0  0  0  0  0  0  0  0  0
   -0.6053   -1.7155    1.3266 H   0  0  0  0  0  0  0  0  0  0  0  0
   -1.4299   -0.2195    1.7949 H   0  0  0  0  0  0  0  0  0  0  0  0
   -2.6402   -2.2929    0.2007 H   0  0  0  0  0  0  0  0  0  0  0  0
   -1.4116    1.3619   -1.5239 H   0  0  0  0  0  0  0  0  0  0  0  0
   -2.7976    0.5523   -0.7164 H   0  0  0  0  0  0  0  0  0  0  0  0
   -0.3965    2.0925    1.9062 H   0  0  0  0  0  0  0  0  0  0  0  0
   -0.4896    3.4561    0.7322 H   0  0  0  0  0  0  0  0  0  0  0  0
    1.4990    2.1022    0.5361 H   0  0  0  0  0  0  0  0  0  0  0  0
    0.5586    2.0986   -1.0144 H   0  0  0  0  0  0  0  0  0  0  0  0
    2.5102   -1.3051    2.0607 H   0  0  0  0  0  0  0  0  0  0  0  0
    2.1502   -1.0289   -1.5579 H   0  0  0  0  0  0  0  0  0  0  0  0
    4.3047   -0.8866   -0.6117 H   0  0  0  0  0  0  0  0  0  0  0  0
  2  1  1  6
  2  3  1  0
  3  4  1  0
  2  5  1  0
  5  6  1  0
  6  7  1  0
  7  8  1  0
  8  9  1  0
  9 10  1  0
 10 11  2  3
 10 12  1  0
 12 13  1  0
  9  2  1  0
  1 14  1  0
  1 15  1  0
  1 16  1  0
  3 17  1  0
  3 18  1  0
  4 19  1  0
  5 20  1  0
  5 21  1  0
  7 22  1  0
  7 23  1  0
  8 24  1  0
  8 25  1  0
 11 26  1  0
 12 27  1  0
 13 28  1  0
M  END
$$$$

     RDKit          3D

 28 28  0  0  0  0  0  0  0  0999 V2000
    0.9895   -1.5375   -0.5453 C   0  0  0  0  0  0  0  0  0  0  0  0
    0.7423   -0.0514   -0.4180 C   0  0  2  0  0  0  0  0  0  0  0  0
    1.0117    0.6099   -1.7536 C   0  0  0  0  0  0  0  0  0  0  0  0
    2.3218    0.3039   -2.1197 O   0  0  0  0  0  0  0  0  0  0  0  0
    1.6696    0.5698    0.6171 C   0  0  0  0  0  0  0  0  0  0  0  0
    0.9625    1.1109    1.6823 O   0  0  0  0  0  0  0  0  0  0  0  0
    0.0895    2.1143    1.2833 C   0  0  0  0  0  0  0  0  0  0  0  0
   -0.9104    1.6402    0.2718 C   0  0  0  0  0  0  0  0  0  0  0  0
   -0.6024    0.2557   -0.0372 N   0  0  0  0  0  0  0  0  0  0  0  0
   -1.6471   -0.7014    0.0568 C   0  0  0  0  0  0  0  0  0  0  0  0
   -2.6487   -0.5838   -0.7451 N   0  0  0  0  0  0  0  0  0  0  0  0
   -1.6543   -1.7777    0.9793 N   0  0  0  0  0  0  0  0  0  0  0  0
   -2.5363   -2.7980    0.9322 O   0  0  0  0  0  0  0  0  0  0  0  0
    0.0226   -2.0602   -0.7240 H   0  0  0  0  0  0  0  0  0  0  0  0
    1.4860   -1.9067    0.3598 H   0  0  0  0  0  0  0  0  0  0  0  0
    1.6740   -1.6945   -1.4053 H   0  0  0  0  0  0  0  0  0  0  0  0
    0.3121    0.2625   -2.5281 H   0  0  0  0  0  0  0  0  0  0  0  0
    0.8880    1.7142   -1.6803 H   0  0  0  0  0  0  0  0  0  0  0  0
    2.8274    0.0125   -1.3360 H   0  0  0  0  0  0  0  0  0  0  0  0
    2.3449    1.3294    0.1437 H   0  0  0  0  0  0  0  0  0  0  0  0
    2.3333   -0.2134    1.0386 H   0  0  0  0  0  0  0  0  0  0  0  0
   -0.4659    2.4406    2.1871 H   0  0  0  0  0  0  0  0  0  0  0  0
    0.6372    3.0213    0.9239 H   0  0  0  0  0  0  0  0  0  0  0  0
   -1.9629    1.7546    0.6153 H   0  0  0  0  0  0  0  0  0  0  0  0
   -0.8000    2.2266   -0.6748 H   0  0  0  0  0  0  0  0  0  0  0  0
   -3.4424   -1.2344   -0.7396 H   0  0  0  0  0  0  0  0  0  0  0  0
   -0.9297   -1.7601    1.7270 H   0  0  0  0  0  0  0  0  0  0  0  0
   -2.7122   -3.0473    1.8888 H   0  0  0  0  0  0  0  0  0  0  0  0
  2  1  1  6
  2  3  1  0
  3  4  1  0
  2  5  1  0
  5  6  1  0
  6  7  1  0
  7  8  1  0
  8  9  1  0
  9 10  1  0
 10 11  2  3
 10 12  1  0
 12 13  1  0
  9  2  1  0
  1 14  1  0
  1 15  1  0
  1 16  1  0
  3 17  1  0
  3 18  1  0
  4 19  1  0
  5 20  1  0
  5 21  1  0
  7 22  1  0
  7 23  1  0
  8 24  1  0
  8 25  1  0
 11 26  1  0
 12 27  1  0
 13 28  1  0
M  END
$$$$

     RDKit          3D

 28 28  0  0  0  0  0  0  0  0999 V2000
   -1.2686   -0.7696   -1.7260 C   0  0  0  0  0  0  0  0  0  0  0  0
   -0.8742   -0.2883   -0.3252 C   0  0  2  0  0  0  0  0  0  0  0  0
   -1.2016   -1.3577    0.6872 C   0  0  0  0  0  0  0  0  0  0  0  0
   -0.9276   -0.8542    1.9551 O   0  0  0  0  0  0  0  0  0  0  0  0
   -1.7634    0.9011   -0.0271 C   0  0  0  0  0  0  0  0  0  0  0  0
   -1.5134    1.8420   -1.0315 O   0  0  0  0  0  0  0  0  0  0  0  0
   -0.2866    2.4133   -0.7973 C   0  0  0  0  0  0  0  0  0  0  0  0
    0.8526    1.4586   -0.7341 C   0  0  0  0  0  0  0  0  0  0  0  0
    0.4852    0.1300   -0.3062 N   0  0  0  0  0  0  0  0  0  0  0  0
    1.5172   -0.7382    0.1308 C   0  0  0  0  0  0  0  0  0  0  0  0
    1.6933   -1.9045   -0.4231 N   0  0  0  0  0  0  0  0  0  0  0  0
    2.3854   -0.3343    1.1983 N   0  0  0  0  0  0  0  0  0  0  0  0
    3.0665   -1.2694    1.9108 O   0  0  0  0  0  0  0  0  0  0  0  0
   -0.9898    0.0313   -2.4334 H   0  0  0  0  0  0  0  0  0  0  0  0
   -2.3827   -0.8515   -1.7042 H   0  0  0  0  0  0  0  0  0  0  0  0
   -0.8061   -1.7393   -1.9240 H   0  0  0  0  0  0  0  0  0  0  0  0
   -2.2815   -1.5487    0.6259 H   0  0  0  0  0  0  0  0  0  0  0  0
   -0.6796   -2.3027    0.5134 H   0  0  0  0  0  0  0  0  0  0  0  0
   -1.4846   -1.3860    2.5931 H   0  0  0  0  0  0  0  0  0  0  0  0
   -1.5072    1.3050    0.9738 H   0  0  0  0  0  0  0  0  0  0  0  0
   -2.8243    0.6016   -0.0930 H   0  0  0  0  0  0  0  0  0  0  0  0
   -0.0903    3.1218   -1.6539 H   0  0  0  0  0  0  0  0  0  0  0  0
   -0.3544    3.0395    0.1251 H   0  0  0  0  0  0  0  0  0  0  0  0
    1.4063    1.4130   -1.7028 H   0  0  0  0  0  0  0  0  0  0  0  0
    1.5915    1.8725    0.0111 H   0  0  0  0  0  0  0  0  0  0  0  0
    2.4513   -2.5246   -0.0914 H   0  0  0  0  0  0  0  0  0  0  0  0
    2.5067    0.6720    1.4424 H   0  0  0  0  0  0  0  0  0  0  0  0
    3.2800   -0.9325    2.8062 H   0  0  0  0  0  0  0  0  0  0  0  0
  2  1  1  6
  2  3  1  0
  3  4  1  0
  2  5  1  0
  5  6  1  0
  6  7  1  0
  7  8  1  0
  8  9  1  0
  9 10  1  0
 10 11  2  3
 10 12  1  0
 12 13  1  0
  9  2  1  0
  1 14  1  0
  1 15  1  0
  1 16  1  0
  3 17  1  0
  3 18  1  0
  4 19  1  0
  5 20  1  0
  5 21  1  0
  7 22  1  0
  7 23  1  0
  8 24  1  0
  8 25  1  0
 11 26  1  0
 12 27  1  0
 13 28  1  0
M  END
$$$$
