
     RDKit          3D

 25 24  0  0  0  0  0  0  0  0999 V2000
   -1.6932   -0.8465   -1.7809 C   0  0  0  0  0  0  0  0  0  0  0  0
   -1.5857   -0.0622   -0.4823 C   0  0  0  0  0  0  0  0  0  0  0  0
   -2.1293   -0.9592    0.6093 C   0  0  0  0  0  0  0  0  0  0  0  0
   -2.2918    1.1068   -0.6220 O   0  0  0  0  0  0  0  0  0  0  0  0
   -2.2793    1.8940    0.4528 N   0  0  0  0  0  0  0  0  0  0  0  0
   -0.1708    0.2324   -0.1332 C   0  0  0  0  0  0  0  0  0  0  0  0
    0.2037    1.4273   -0.0115 O   0  0  0  0  0  0  0  0  0  0  0  0
    0.7998   -0.7738    0.0745 N   0  0  0  0  0  0  0  0  0  0  0  0
    2.1767   -0.4797    0.4144 C   0  0  0  0  0  0  0  0  0  0  0  0
    2.8464    0.3291   -0.6149 C   0  0  0  0  0  0  0  0  0  0  0  0
    4.1882    0.7078   -0.4489 N   0  0  0  0  0  0  0  0  0  0  0  0
    2.2271    0.6789   -1.6329 O   0  0  0  0  0  0  0  0  0  0  0  0
   -2.7816   -0.9190   -2.0030 H   0  0  0  0  0  0  0  0  0  0  0  0
   -1.1635   -0.3415   -2.5999 H   0  0  0  0  0  0  0  0  0  0  0  0
   -1.3526   -1.8938   -1.6135 H   0  0  0  0  0  0  0  0  0  0  0  0
   -2.0150   -0.4929    1.6072 H   0  0  0  0  0  0  0  0  0  0  0  0
   -3.1709   -1.2851    0.4026 H   0  0  0  0  0  0  0  0  0  0  0  0
   -1.5012   -1.8747    0.6117 H   0  0  0  0  0  0  0  0  0  0  0  0
   -3.2705    2.0788    0.7271 H   0  0  0  0  0  0  0  0  0  0  0  0
   -1.9003    2.8336    0.1376 H   0  0  0  0  0  0  0  0  0  0  0  0
    0.5329   -1.7763   -0.0162 H   0  0  0  0  0  0  0  0  0  0  0  0
    2.7538   -1.4006    0.6379 H   0  0  0  0  0  0  0  0  0  0  0  0
    2.2353    0.1220    1.3687 H   0  0  0  0  0  0  0  0  0  0  0  0
    4.4331    1.3829    0.3005 H   0  0  0  0  0  0  0  0  0  0  0  0
    4.9086    0.3116   -1.0713 H   0  0  0  0  0  0  0  0  0  0  0  0
  1  2  1  0
  2  3  1  0
  2  4  1  0
  4  5  1  0
  2  6  1  0
  6  7  2  0
  6  8  1  0
  8  9  1  0
  9 10  1  0
 10 11  1  0
 10 12  2  0
  1 13  1  0
  1 14  1  0
  1 15  1  0
  3 16  1  0
  3 17  1  0
  3 18  1  0
  5 19  1  0
  5 20  1  0
  8 21  1  0
  9 22  1  0
  9 23  1  0
 11 24  1  0
 11 25  1  0
M  END
$$$$

     RDKit          3D

 25 24  0  0  0  0  0  0  0  0999 V2000
   -1.7744    1.1002   -0.7809 C   0  0  0  0  0  0  0  0  0  0  0  0
   -1.3583   -0.0265    0.1414 C   0  0  0  0  0  0  0  0  0  0  0  0
   -2.1549   -1.2923   -0.1764 C   0  0  0  0  0  0  0  0  0  0  0  0
   -1.6847    0.3330    1.4434 O   0  0  0  0  0  0  0  0  0  0  0  0
   -3.0022    0.5304    1.5125 N   0  0  0  0  0  0  0  0  0  0  0  0
    0.0849   -0.3253   -0.0017 C   0  0  0  0  0  0  0  0  0  0  0  0
    0.4882   -0.6630   -1.1476 O   0  0  0  0  0  0  0  0  0  0  0  0
    1.0042   -0.2469    1.0762 N   0  0  0  0  0  0  0  0  0  0  0  0
    2.4130   -0.5618    0.8350 C   0  0  0  0  0  0  0  0  0  0  0  0
    2.9700    0.3719   -0.1951 C   0  0  0  0  0  0  0  0  0  0  0  0
    4.3370    0.2044   -0.5511 N   0  0  0  0  0  0  0  0  0  0  0  0
    2.3154    1.2676   -0.7451 O   0  0  0  0  0  0  0  0  0  0  0  0
   -2.6966    0.7888   -1.3510 H   0  0  0  0  0  0  0  0  0  0  0  0
   -1.9489    2.0485   -0.2359 H   0  0  0  0  0  0  0  0  0  0  0  0
   -0.9878    1.3242   -1.5418 H   0  0  0  0  0  0  0  0  0  0  0  0
   -3.0029   -1.4246    0.5052 H   0  0  0  0  0  0  0  0  0  0  0  0
   -2.4619   -1.2174   -1.2352 H   0  0  0  0  0  0  0  0  0  0  0  0
   -1.5076   -2.2023   -0.0999 H   0  0  0  0  0  0  0  0  0  0  0  0
   -3.3265    1.0725    2.3164 H   0  0  0  0  0  0  0  0  0  0  0  0
   -3.4763    0.6991    0.6179 H   0  0  0  0  0  0  0  0  0  0  0  0
    0.6475    0.0338    2.0112 H   0  0  0  0  0  0  0  0  0  0  0  0
    2.9930   -0.5488    1.7712 H   0  0  0  0  0  0  0  0  0  0  0  0
    2.4342   -1.5870    0.4348 H   0  0  0  0  0  0  0  0  0  0  0  0
    4.6556   -0.4067   -1.3309 H   0  0  0  0  0  0  0  0  0  0  0  0
    5.0402    0.7280    0.0084 H   0  0  0  0  0  0  0  0  0  0  0  0
  1  2  1  0
  2  3  1  0
  2  4  1  0
  4  5  1  0
  2  6  1  0
  6  7  2  0
  6  8  1  0
  8  9  1  0
  9 10  1  0
 10 11  1  0
 10 12  2  0
  1 13  1  0
  1 14  1  0
  1 15  1  0
  3 16  1  0
  3 17  1  0
  3 18  1  0
  5 19  1  0
  5 20  1  0
  8 21  1  0
  9 22  1  0
  9 23  1  0
 11 24  1  0
 11 25  1  0
M  END
$$$$

     RDKit          3D

 25 24  0  0  0  0  0  0  0  0999 V2000
   -2.5031   -0.0988   -0.9249 C   0  0  0  0  0  0  0  0  0  0  0  0
   -1.4324    0.2524    0.1160 C   0  0  0  0  0  0  0  0  0  0  0  0
   -1.5992   -0.7102    1.2723 C   0  0  0  0  0  0  0  0  0  0  0  0
   -1.6934    1.5145    0.5534 O   0  0  0  0  0  0  0  0  0  0  0  0
   -0.9054    2.0300    1.4785 N   0  0  0  0  0  0  0  0  0  0  0  0
   -0.1297    0.0081   -0.5039 C   0  0  0  0  0  0  0  0  0  0  0  0
    0.1181   -1.1786   -0.8628 O   0  0  0  0  0  0  0  0  0  0  0  0
    0.8874    0.9619   -0.7470 N   0  0  0  0  0  0  0  0  0  0  0  0
    2.1522    0.6057   -1.3719 C   0  0  0  0  0  0  0  0  0  0  0  0
    2.8934   -0.4001   -0.5962 C   0  0  0  0  0  0  0  0  0  0  0  0
    2.3783   -0.9149    0.6037 N   0  0  0  0  0  0  0  0  0  0  0  0
    4.0008   -0.7995   -1.0177 O   0  0  0  0  0  0  0  0  0  0  0  0
   -2.5812    0.7590   -1.6203 H   0  0  0  0  0  0  0  0  0  0  0  0
   -2.2325   -1.0402   -1.4483 H   0  0  0  0  0  0  0  0  0  0  0  0
   -3.4791   -0.2153   -0.4250 H   0  0  0  0  0  0  0  0  0  0  0  0
   -2.1101   -1.6349    0.9337 H   0  0  0  0  0  0  0  0  0  0  0  0
   -0.6329   -0.9848    1.7331 H   0  0  0  0  0  0  0  0  0  0  0  0
   -2.2168   -0.2705    2.0839 H   0  0  0  0  0  0  0  0  0  0  0  0
   -0.6267    2.9896    1.1968 H   0  0  0  0  0  0  0  0  0  0  0  0
   -0.0890    1.4331    1.7076 H   0  0  0  0  0  0  0  0  0  0  0  0
    0.7128    1.9492   -0.4695 H   0  0  0  0  0  0  0  0  0  0  0  0
    1.9883    0.1837   -2.3877 H   0  0  0  0  0  0  0  0  0  0  0  0
    2.7766    1.4884   -1.4848 H   0  0  0  0  0  0  0  0  0  0  0  0
    2.5956   -1.8794    0.9683 H   0  0  0  0  0  0  0  0  0  0  0  0
    1.7278   -0.3353    1.2125 H   0  0  0  0  0  0  0  0  0  0  0  0
  1  2  1  0
  2  3  1  0
  2  4  1  0
  4  5  1  0
  2  6  1  0
  6  7  2  0
  6  8  1  0
  8  9  1  0
  9 10  1  0
 10 11  1  0
 10 12  2  0
  1 13  1  0
  1 14  1  0
  1 15  1  0
  3 16  1  0
  3 17  1  0
  3 18  1  0
  5 19  1  0
  5 20  1  0
  8 21  1  0
  9 22  1  0
  9 23  1  0
 11 24  1  0
 11 25  1  0
M  END
$$$$

     RDKit          3D

 25 24  0  0  0  0  0  0  0  0999 V2000
   -1.7733    1.1310    0.0527 C   0  0  0  0  0  0  0  0  0  0  0  0
   -1.3498   -0.3238    0.1266 C   0  0  0  0  0  0  0  0  0  0  0  0
   -1.9826   -1.0458   -1.0304 C   0  0  0  0  0  0  0  0  0  0  0  0
   -1.7577   -0.8876    1.3314 O   0  0  0  0  0  0  0  0  0  0  0  0
   -1.2417   -0.2743    2.3993 N   0  0  0  0  0  0  0  0  0  0  0  0
    0.1233   -0.4634   -0.0022 C   0  0  0  0  0  0  0  0  0  0  0  0
    0.8013   -1.0251    0.9037 O   0  0  0  0  0  0  0  0  0  0  0  0
    0.8083    0.0300   -1.1454 N   0  0  0  0  0  0  0  0  0  0  0  0
    2.2202   -0.0669   -1.3405 C   0  0  0  0  0  0  0  0  0  0  0  0
    3.0095    0.6070   -0.3008 C   0  0  0  0  0  0  0  0  0  0  0  0
    2.3916    1.2825    0.7836 N   0  0  0  0  0  0  0  0  0  0  0  0
    4.2627    0.5982   -0.3521 O   0  0  0  0  0  0  0  0  0  0  0  0
   -2.8551    1.1972    0.1659 H   0  0  0  0  0  0  0  0  0  0  0  0
   -1.2037    1.7663    0.7804 H   0  0  0  0  0  0  0  0  0  0  0  0
   -1.5179    1.5276   -0.9488 H   0  0  0  0  0  0  0  0  0  0  0  0
   -3.0791   -1.0697   -0.9679 H   0  0  0  0  0  0  0  0  0  0  0  0
   -1.6527   -0.5477   -1.9741 H   0  0  0  0  0  0  0  0  0  0  0  0
   -1.6118   -2.0913   -1.0843 H   0  0  0  0  0  0  0  0  0  0  0  0
   -1.5152   -0.7738    3.2524 H   0  0  0  0  0  0  0  0  0  0  0  0
   -1.5975    0.6958    2.4722 H   0  0  0  0  0  0  0  0  0  0  0  0
    0.2243    0.4878   -1.8747 H   0  0  0  0  0  0  0  0  0  0  0  0
    2.4775    0.3495   -2.3308 H   0  0  0  0  0  0  0  0  0  0  0  0
    2.4624   -1.1662   -1.3250 H   0  0  0  0  0  0  0  0  0  0  0  0
    1.7746    2.1242    0.6628 H   0  0  0  0  0  0  0  0  0  0  0  0
    2.5825    0.8933    1.7463 H   0  0  0  0  0  0  0  0  0  0  0  0
  1  2  1  0
  2  3  1  0
  2  4  1  0
  4  5  1  0
  2  6  1  0
  6  7  2  0
  6  8  1  0
  8  9  1  0
  9 10  1  0
 10 11  1  0
 10 12  2  0
  1 13  1  0
  1 14  1  0
  1 15  1  0
  3 16  1  0
  3 17  1  0
  3 18  1  0
  5 19  1  0
  5 20  1  0
  8 21  1  0
  9 22  1  0
  9 23  1  0
 11 24  1  0
 11 25  1  0
M  END
$$$$

     RDKit          3D

 25 24  0  0  0  0  0  0  0  0999 V2000
   -1.9572    1.5471   -0.2544 C   0  0  0  0  0  0  0  0  0  0  0  0
   -1.6937    0.0531   -0.0523 C   0  0  0  0  0  0  0  0  0  0  0  0
   -1.8155   -0.1898    1.4436 C   0  0  0  0  0  0  0  0  0  0  0  0
   -2.6508   -0.6280   -0.7699 O   0  0  0  0  0  0  0  0  0  0  0  0
   -2.5345   -1.9638   -0.6789 N   0  0  0  0  0  0  0  0  0  0  0  0
   -0.3563   -0.3258   -0.5603 C   0  0  0  0  0  0  0  0  0  0  0  0
   -0.2358   -1.1497   -1.5028 O   0  0  0  0  0  0  0  0  0  0  0  0
    0.8286    0.2160   -0.0139 N   0  0  0  0  0  0  0  0  0  0  0  0
    2.1191   -0.1760   -0.5340 C   0  0  0  0  0  0  0  0  0  0  0  0
    3.2184    0.5043    0.1746 C   0  0  0  0  0  0  0  0  0  0  0  0
    4.5629    0.2640   -0.1765 N   0  0  0  0  0  0  0  0  0  0  0  0
    2.9627    1.3059    1.0996 O   0  0  0  0  0  0  0  0  0  0  0  0
   -2.7826    1.8534    0.4419 H   0  0  0  0  0  0  0  0  0  0  0  0
   -2.3582    1.7018   -1.2733 H   0  0  0  0  0  0  0  0  0  0  0  0
   -1.0576    2.1407   -0.0657 H   0  0  0  0  0  0  0  0  0  0  0  0
   -1.2104   -1.0428    1.7846 H   0  0  0  0  0  0  0  0  0  0  0  0
   -1.4603    0.7138    1.9667 H   0  0  0  0  0  0  0  0  0  0  0  0
   -2.8988   -0.2945    1.6527 H   0  0  0  0  0  0  0  0  0  0  0  0
   -2.4407   -2.1903    0.3471 H   0  0  0  0  0  0  0  0  0  0  0  0
   -3.4315   -2.3956   -0.9781 H   0  0  0  0  0  0  0  0  0  0  0  0
    0.7132    0.9024    0.7723 H   0  0  0  0  0  0  0  0  0  0  0  0
    2.1045    0.1094   -1.6270 H   0  0  0  0  0  0  0  0  0  0  0  0
    2.2459   -1.2885   -0.5453 H   0  0  0  0  0  0  0  0  0  0  0  0
    4.7726   -0.1577   -1.1042 H   0  0  0  0  0  0  0  0  0  0  0  0
    5.3560    0.4907    0.4536 H   0  0  0  0  0  0  0  0  0  0  0  0
  1  2  1  0
  2  3  1  0
  2  4  1  0
  4  5  1  0
  2  6  1  0
  6  7  2  0
  6  8  1  0
  8  9  1  0
  9 10  1  0
 10 11  1  0
 10 12  2  0
  1 13  1  0
  1 14  1  0
  1 15  1  0
  3 16  1  0
  3 17  1  0
  3 18  1  0
  5 19  1  0
  5 20  1  0
  8 21  1  0
  9 22  1  0
  9 23  1  0
 11 24  1  0
 11 25  1  0
M  END
$$$$

     RDKit          3D

 25 24  0  0  0  0  0  0  0  0999 V2000
   -2.1607    1.0329   -0.8881 C   0  0  0  0  0  0  0  0  0  0  0  0
   -1.2493   -0.1473   -0.6277 C   0  0  0  0  0  0  0  0  0  0  0  0
   -0.8931   -0.7666   -1.9914 C   0  0  0  0  0  0  0  0  0  0  0  0
   -1.9422   -1.0772    0.1041 O   0  0  0  0  0  0  0  0  0  0  0  0
   -2.4206   -0.6686    1.2765 N   0  0  0  0  0  0  0  0  0  0  0  0
    0.0067    0.3346   -0.0080 C   0  0  0  0  0  0  0  0  0  0  0  0
    0.6905    1.2615   -0.5712 O   0  0  0  0  0  0  0  0  0  0  0  0
    0.5617   -0.1483    1.2053 N   0  0  0  0  0  0  0  0  0  0  0  0
    1.7809    0.3838    1.7255 C   0  0  0  0  0  0  0  0  0  0  0  0
    2.9318    0.2159    0.8054 C   0  0  0  0  0  0  0  0  0  0  0  0
    2.8731   -0.3938   -0.4494 N   0  0  0  0  0  0  0  0  0  0  0  0
    4.0412    0.6660    1.2069 O   0  0  0  0  0  0  0  0  0  0  0  0
   -2.0730    1.7846   -0.0962 H   0  0  0  0  0  0  0  0  0  0  0  0
   -1.8839    1.5041   -1.8643 H   0  0  0  0  0  0  0  0  0  0  0  0
   -3.2211    0.7374   -0.9639 H   0  0  0  0  0  0  0  0  0  0  0  0
   -1.6490   -0.4646   -2.7188 H   0  0  0  0  0  0  0  0  0  0  0  0
    0.0926   -0.3944   -2.3098 H   0  0  0  0  0  0  0  0  0  0  0  0
   -0.8069   -1.8773   -1.8853 H   0  0  0  0  0  0  0  0  0  0  0  0
   -2.0024    0.2240    1.5886 H   0  0  0  0  0  0  0  0  0  0  0  0
   -2.2320   -1.3914    1.9939 H   0  0  0  0  0  0  0  0  0  0  0  0
    0.0692   -0.9107    1.7181 H   0  0  0  0  0  0  0  0  0  0  0  0
    2.0353   -0.1387    2.6684 H   0  0  0  0  0  0  0  0  0  0  0  0
    1.7267    1.4622    1.9744 H   0  0  0  0  0  0  0  0  0  0  0  0
    3.3315    0.0692   -1.2640 H   0  0  0  0  0  0  0  0  0  0  0  0
    2.3930   -1.2972   -0.6289 H   0  0  0  0  0  0  0  0  0  0  0  0
  1  2  1  0
  2  3  1  0
  2  4  1  0
  4  5  1  0
  2  6  1  0
  6  7  2  0
  6  8  1  0
  8  9  1  0
  9 10  1  0
 10 11  1  0
 10 12  2  0
  1 13  1  0
  1 14  1  0
  1 15  1  0
  3 16  1  0
  3 17  1  0
  3 18  1  0
  5 19  1  0
  5 20  1  0
  8 21  1  0
  9 22  1  0
  9 23  1  0
 11 24  1  0
 11 25  1  0
M  END
$$$$

     RDKit          3D

 25 24  0  0  0  0  0  0  0  0999 V2000
   -2.1058   -1.7388   -0.6064 C   0  0  0  0  0  0  0  0  0  0  0  0
   -1.6724   -0.4811    0.1493 C   0  0  0  0  0  0  0  0  0  0  0  0
   -2.5865   -0.2420    1.3351 C   0  0  0  0  0  0  0  0  0  0  0  0
   -1.8027    0.6260   -0.6868 O   0  0  0  0  0  0  0  0  0  0  0  0
   -1.4365    1.7155    0.0321 N   0  0  0  0  0  0  0  0  0  0  0  0
   -0.2652   -0.6962    0.5601 C   0  0  0  0  0  0  0  0  0  0  0  0
   -0.0372   -1.6291    1.3757 O   0  0  0  0  0  0  0  0  0  0  0  0
    0.7877    0.1037    0.0640 N   0  0  0  0  0  0  0  0  0  0  0  0
    2.1668   -0.1529    0.5083 C   0  0  0  0  0  0  0  0  0  0  0  0
    3.0691    0.8003   -0.1412 C   0  0  0  0  0  0  0  0  0  0  0  0
    4.4798    0.8005    0.0929 N   0  0  0  0  0  0  0  0  0  0  0  0
    2.6061    1.6602   -0.9392 O   0  0  0  0  0  0  0  0  0  0  0  0
   -2.0463   -2.5696    0.1169 H   0  0  0  0  0  0  0  0  0  0  0  0
   -3.1523   -1.5659   -0.9360 H   0  0  0  0  0  0  0  0  0  0  0  0
   -1.4234   -1.8504   -1.4717 H   0  0  0  0  0  0  0  0  0  0  0  0
   -3.4519    0.4037    1.0136 H   0  0  0  0  0  0  0  0  0  0  0  0
   -2.0620    0.2725    2.1728 H   0  0  0  0  0  0  0  0  0  0  0  0
   -3.0488   -1.1937    1.6659 H   0  0  0  0  0  0  0  0  0  0  0  0
   -2.1041    1.9352    0.7963 H   0  0  0  0  0  0  0  0  0  0  0  0
   -1.1400    2.5116   -0.5387 H   0  0  0  0  0  0  0  0  0  0  0  0
    0.6196    0.8720   -0.6167 H   0  0  0  0  0  0  0  0  0  0  0  0
    2.1587    0.0012    1.6169 H   0  0  0  0  0  0  0  0  0  0  0  0
    2.4611   -1.1778    0.2299 H   0  0  0  0  0  0  0  0  0  0  0  0
    4.9526   -0.0602    0.4060 H   0  0  0  0  0  0  0  0  0  0  0  0
    5.0335    1.6555   -0.0483 H   0  0  0  0  0  0  0  0  0  0  0  0
  1  2  1  0
  2  3  1  0
  2  4  1  0
  4  5  1  0
  2  6  1  0
  6  7  2  0
  6  8  1  0
  8  9  1  0
  9 10  1  0
 10 11  1  0
 10 12  2  0
  1 13  1  0
  1 14  1  0
  1 15  1  0
  3 16  1  0
  3 17  1  0
  3 18  1  0
  5 19  1  0
  5 20  1  0
  8 21  1  0
  9 22  1  0
  9 23  1  0
 11 24  1  0
 11 25  1  0
M  END
$$$$

     RDKit          3D

 25 24  0  0  0  0  0  0  0  0999 V2000
   -1.7896    0.6927    1.1735 C   0  0  0  0  0  0  0  0  0  0  0  0
   -1.5568   -0.3413    0.0956 C   0  0  0  0  0  0  0  0  0  0  0  0
   -1.6255    0.2869   -1.2993 C   0  0  0  0  0  0  0  0  0  0  0  0
   -2.5334   -1.2997    0.2053 O   0  0  0  0  0  0  0  0  0  0  0  0
   -3.7321   -0.7200    0.0458 N   0  0  0  0  0  0  0  0  0  0  0  0
   -0.1858   -0.9018    0.2259 C   0  0  0  0  0  0  0  0  0  0  0  0
   -0.0280   -2.1350    0.4152 O   0  0  0  0  0  0  0  0  0  0  0  0
    0.9500   -0.0577    0.1387 N   0  0  0  0  0  0  0  0  0  0  0  0
    2.3089   -0.5245    0.2546 C   0  0  0  0  0  0  0  0  0  0  0  0
    3.2275    0.6266    0.1142 C   0  0  0  0  0  0  0  0  0  0  0  0
    4.6355    0.4743    0.1850 N   0  0  0  0  0  0  0  0  0  0  0  0
    2.7842    1.7830   -0.0734 O   0  0  0  0  0  0  0  0  0  0  0  0
   -2.8666    0.9793    1.1076 H   0  0  0  0  0  0  0  0  0  0  0  0
   -1.1984    1.6209    0.9934 H   0  0  0  0  0  0  0  0  0  0  0  0
   -1.5262    0.2373    2.1372 H   0  0  0  0  0  0  0  0  0  0  0  0
   -0.5947    0.5000   -1.6875 H   0  0  0  0  0  0  0  0  0  0  0  0
   -2.1422    1.2406   -1.1977 H   0  0  0  0  0  0  0  0  0  0  0  0
   -2.0871   -0.4115   -2.0326 H   0  0  0  0  0  0  0  0  0  0  0  0
   -4.4893   -1.4471   -0.1130 H   0  0  0  0  0  0  0  0  0  0  0  0
   -3.6657   -0.0847   -0.7812 H   0  0  0  0  0  0  0  0  0  0  0  0
    0.7411    0.9728   -0.0221 H   0  0  0  0  0  0  0  0  0  0  0  0
    2.5777   -1.2436   -0.5561 H   0  0  0  0  0  0  0  0  0  0  0  0
    2.4821   -1.0906    1.2088 H   0  0  0  0  0  0  0  0  0  0  0  0
    5.1236    0.7286    1.0663 H   0  0  0  0  0  0  0  0  0  0  0  0
    5.1909    0.1146   -0.6234 H   0  0  0  0  0  0  0  0  0  0  0  0
  1  2  1  0
  2  3  1  0
  2  4  1  0
  4  5  1  0
  2  6  1  0
  6  7  2  0
  6  8  1  0
  8  9  1  0
  9 10  1  0
 10 11  1  0
 10 12  2  0
  1 13  1  0
  1 14  1  0
  1 15  1  0
  3 16  1  0
  3 17  1  0
  3 18  1  0
  5 19  1  0
  5 20  1  0
  8 21  1  0
  9 22  1  0
  9 23  1  0
 11 24  1  0
 11 25  1  0
M  END
$$$$
