
     RDKit          3D

 20 21  0  0  0  0  0  0  0  0999 V2000
    1.8087    1.3954    0.4051 N   0  0  0  0  0  0  0  0  0  0  0  0
    1.7380    0.0412    0.8354 C   0  0  2  0  0  0  0  0  0  0  0  0
    1.8658   -1.0281   -0.2517 C   0  0  0  0  0  0  0  0  0  0  0  0
    0.5899   -0.8445    0.6002 C   0  0  2  0  0  0  0  0  0  0  0  0
   -0.5883   -0.4281   -0.1064 N   0  0  0  0  0  0  0  0  0  0  0  0
   -0.7199    0.6019   -1.1157 C   0  0  0  0  0  0  0  0  0  0  0  0
   -2.1653    0.8868   -1.2073 C   0  0  0  0  0  0  0  0  0  0  0  0
   -2.6665    1.9190   -1.7455 O   0  0  0  0  0  0  0  0  0  0  0  0
   -2.8438   -0.1933   -0.5918 N   0  0  0  0  0  0  0  0  0  0  0  0
   -1.8803   -0.9763    0.0675 C   0  0  0  0  0  0  0  0  0  0  0  0
   -2.1743   -2.0253    0.7189 O   0  0  0  0  0  0  0  0  0  0  0  0
    2.1691    1.5393   -0.5503 H   0  0  0  0  0  0  0  0  0  0  0  0
    2.1445    2.0695    1.1121 H   0  0  0  0  0  0  0  0  0  0  0  0
    2.3862   -0.1685    1.7341 H   0  0  0  0  0  0  0  0  0  0  0  0
    1.8086   -0.7029   -1.3047 H   0  0  0  0  0  0  0  0  0  0  0  0
    2.4897   -1.9021   -0.0689 H   0  0  0  0  0  0  0  0  0  0  0  0
    0.4579   -1.6730    1.3467 H   0  0  0  0  0  0  0  0  0  0  0  0
   -0.2154    1.5559   -0.8250 H   0  0  0  0  0  0  0  0  0  0  0  0
   -0.3300    0.2621   -2.1017 H   0  0  0  0  0  0  0  0  0  0  0  0
   -3.8750   -0.3290   -0.6530 H   0  0  0  0  0  0  0  0  0  0  0  0
  1  2  1  0
  2  3  1  0
  3  4  1  0
  4  5  1  0
  5  6  1  0
  6  7  1  0
  7  8  2  0
  7  9  1  0
  9 10  1  0
 10 11  2  0
  4  2  1  0
 10  5  1  0
  1 12  1  0
  1 13  1  0
  2 14  1  1
  3 15  1  0
  3 16  1  0
  4 17  1  1
  6 18  1  0
  6 19  1  0
  9 20  1  0
M  END
$$$$

     RDKit          3D

 20 21  0  0  0  0  0  0  0  0999 V2000
   -1.0036   -1.7997    0.6296 N   0  0  0  0  0  0  0  0  0  0  0  0
   -1.7131   -0.5591    0.7375 C   0  0  2  0  0  0  0  0  0  0  0  0
   -2.0589    0.1149   -0.5314 C   0  0  0  0  0  0  0  0  0  0  0  0
   -1.0528    0.7514    0.3044 C   0  0  2  0  0  0  0  0  0  0  0  0
    0.3512    0.6608    0.1383 N   0  0  0  0  0  0  0  0  0  0  0  0
    0.9560   -0.4529   -0.5643 C   0  0  0  0  0  0  0  0  0  0  0  0
    2.1796    0.1501   -1.1404 C   0  0  0  0  0  0  0  0  0  0  0  0
    2.7151   -0.2194   -2.2031 O   0  0  0  0  0  0  0  0  0  0  0  0
    2.5788    1.1821   -0.2592 N   0  0  0  0  0  0  0  0  0  0  0  0
    1.4254    1.4881    0.5310 C   0  0  0  0  0  0  0  0  0  0  0  0
    1.3630    2.3441    1.4253 O   0  0  0  0  0  0  0  0  0  0  0  0
   -1.4013   -2.4592   -0.0640 H   0  0  0  0  0  0  0  0  0  0  0  0
   -0.8396   -2.1958    1.5584 H   0  0  0  0  0  0  0  0  0  0  0  0
   -2.3358   -0.4695    1.6427 H   0  0  0  0  0  0  0  0  0  0  0  0
   -3.0574    0.5977   -0.5722 H   0  0  0  0  0  0  0  0  0  0  0  0
   -1.7829   -0.3861   -1.4682 H   0  0  0  0  0  0  0  0  0  0  0  0
   -1.3574    1.6776    0.8665 H   0  0  0  0  0  0  0  0  0  0  0  0
    1.2336   -1.1947    0.2276 H   0  0  0  0  0  0  0  0  0  0  0  0
    0.2882   -0.8837   -1.3156 H   0  0  0  0  0  0  0  0  0  0  0  0
    3.5119    1.6532   -0.1700 H   0  0  0  0  0  0  0  0  0  0  0  0
  1  2  1  0
  2  3  1  0
  3  4  1  0
  4  5  1  0
  5  6  1  0
  6  7  1  0
  7  8  2  0
  7  9  1  0
  9 10  1  0
 10 11  2  0
  4  2  1  0
 10  5  1  0
  1 12  1  0
  1 13  1  0
  2 14  1  1
  3 15  1  0
  3 16  1  0
  4 17  1  1
  6 18  1  0
  6 19  1  0
  9 20  1  0
M  END
$$$$

     RDKit          3D

 20 21  0  0  0  0  0  0  0  0999 V2000
    1.8956    0.2030    1.4512 N   0  0  0  0  0  0  0  0  0  0  0  0
    2.0271    0.0569    0.0340 C   0  0  2  0  0  0  0  0  0  0  0  0
    1.4375    1.1963   -0.8012 C   0  0  0  0  0  0  0  0  0  0  0  0
    0.9014   -0.2291   -0.8626 C   0  0  2  0  0  0  0  0  0  0  0  0
   -0.4511   -0.3569   -0.4293 N   0  0  0  0  0  0  0  0  0  0  0  0
   -0.9818    0.2049    0.7931 C   0  0  0  0  0  0  0  0  0  0  0  0
   -2.4238   -0.1817    0.8238 C   0  0  0  0  0  0  0  0  0  0  0  0
   -3.1733    0.1595    1.7716 O   0  0  0  0  0  0  0  0  0  0  0  0
   -2.7057   -0.9358   -0.3364 N   0  0  0  0  0  0  0  0  0  0  0  0
   -1.5133   -1.0293   -1.0726 C   0  0  0  0  0  0  0  0  0  0  0  0
   -1.3999   -1.6352   -2.1689 O   0  0  0  0  0  0  0  0  0  0  0  0
    2.4428    0.9730    1.8642 H   0  0  0  0  0  0  0  0  0  0  0  0
    1.9107   -0.6835    1.9836 H   0  0  0  0  0  0  0  0  0  0  0  0
    3.0299   -0.3153   -0.2788 H   0  0  0  0  0  0  0  0  0  0  0  0
    0.8415    1.9652   -0.2818 H   0  0  0  0  0  0  0  0  0  0  0  0
    2.0371    1.5812   -1.6426 H   0  0  0  0  0  0  0  0  0  0  0  0
    1.1380   -0.7290   -1.8366 H   0  0  0  0  0  0  0  0  0  0  0  0
   -0.4421   -0.2063    1.6889 H   0  0  0  0  0  0  0  0  0  0  0  0
   -0.9388    1.2986    0.8320 H   0  0  0  0  0  0  0  0  0  0  0  0
   -3.6317   -1.3369   -0.5792 H   0  0  0  0  0  0  0  0  0  0  0  0
  1  2  1  0
  2  3  1  0
  3  4  1  0
  4  5  1  0
  5  6  1  0
  6  7  1  0
  7  8  2  0
  7  9  1  0
  9 10  1  0
 10 11  2  0
  4  2  1  0
 10  5  1  0
  1 12  1  0
  1 13  1  0
  2 14  1  1
  3 15  1  0
  3 16  1  0
  4 17  1  6
  6 18  1  0
  6 19  1  0
  9 20  1  0
M  END
$$$$

     RDKit          3D

 20 21  0  0  0  0  0  0  0  0999 V2000
   -1.5867   -0.9250    1.3195 N   0  0  0  0  0  0  0  0  0  0  0  0
   -2.0092   -0.1903    0.1610 C   0  0  2  0  0  0  0  0  0  0  0  0
   -1.6711   -0.6745   -1.2137 C   0  0  0  0  0  0  0  0  0  0  0  0
   -0.9419    0.4899   -0.6765 C   0  0  2  0  0  0  0  0  0  0  0  0
    0.4416    0.3175   -0.2848 N   0  0  0  0  0  0  0  0  0  0  0  0
    1.4576    1.3475   -0.3563 C   0  0  0  0  0  0  0  0  0  0  0  0
    2.4987    0.8867    0.6188 C   0  0  0  0  0  0  0  0  0  0  0  0
    3.3371    1.6333    1.1599 O   0  0  0  0  0  0  0  0  0  0  0  0
    2.3367   -0.5280    0.7916 N   0  0  0  0  0  0  0  0  0  0  0  0
    1.0661   -0.8280    0.2243 C   0  0  0  0  0  0  0  0  0  0  0  0
    0.5973   -1.9901    0.2021 O   0  0  0  0  0  0  0  0  0  0  0  0
   -2.3970   -1.4808    1.6739 H   0  0  0  0  0  0  0  0  0  0  0  0
   -1.2912   -0.2422    2.0699 H   0  0  0  0  0  0  0  0  0  0  0  0
   -2.9911    0.3331    0.2752 H   0  0  0  0  0  0  0  0  0  0  0  0
   -1.1904   -1.6762   -1.2708 H   0  0  0  0  0  0  0  0  0  0  0  0
   -2.3720   -0.4909   -2.0565 H   0  0  0  0  0  0  0  0  0  0  0  0
   -1.2318    1.5014   -1.0636 H   0  0  0  0  0  0  0  0  0  0  0  0
    1.9103    1.3897   -1.3769 H   0  0  0  0  0  0  0  0  0  0  0  0
    1.0299    2.3168   -0.0730 H   0  0  0  0  0  0  0  0  0  0  0  0
    3.0070   -1.1900    1.2370 H   0  0  0  0  0  0  0  0  0  0  0  0
  1  2  1  0
  2  3  1  0
  3  4  1  0
  4  5  1  0
  5  6  1  0
  6  7  1  0
  7  8  2  0
  7  9  1  0
  9 10  1  0
 10 11  2  0
  4  2  1  0
 10  5  1  0
  1 12  1  0
  1 13  1  0
  2 14  1  6
  3 15  1  0
  3 16  1  0
  4 17  1  6
  6 18  1  0
  6 19  1  0
  9 20  1  0
M  END
$$$$

     RDKit          3D

 20 21  0  0  0  0  0  0  0  0999 V2000
    1.5053    0.3442   -1.3734 N   0  0  0  0  0  0  0  0  0  0  0  0
    1.8891    0.3999    0.0155 C   0  0  2  0  0  0  0  0  0  0  0  0
    1.9331   -0.8600    0.7709 C   0  0  0  0  0  0  0  0  0  0  0  0
    0.8202    0.0458    1.0860 C   0  0  2  0  0  0  0  0  0  0  0  0
   -0.4929   -0.0968    0.5706 N   0  0  0  0  0  0  0  0  0  0  0  0
   -1.0329   -0.8111   -0.5703 C   0  0  0  0  0  0  0  0  0  0  0  0
   -2.0485    0.1723   -1.0617 C   0  0  0  0  0  0  0  0  0  0  0  0
   -2.3255    0.5044   -2.2438 O   0  0  0  0  0  0  0  0  0  0  0  0
   -2.6573    0.6704    0.1434 N   0  0  0  0  0  0  0  0  0  0  0  0
   -1.6737    0.4961    1.1566 C   0  0  0  0  0  0  0  0  0  0  0  0
   -1.8135    0.8137    2.3870 O   0  0  0  0  0  0  0  0  0  0  0  0
    1.5385    1.2709   -1.8505 H   0  0  0  0  0  0  0  0  0  0  0  0
    1.9515   -0.4243   -1.8917 H   0  0  0  0  0  0  0  0  0  0  0  0
    2.5104    1.2772    0.2899 H   0  0  0  0  0  0  0  0  0  0  0  0
    1.8087   -1.8046    0.2252 H   0  0  0  0  0  0  0  0  0  0  0  0
    2.7483   -0.9240    1.5415 H   0  0  0  0  0  0  0  0  0  0  0  0
    0.8952    0.6593    2.0301 H   0  0  0  0  0  0  0  0  0  0  0  0
   -0.3140   -1.1270   -1.3121 H   0  0  0  0  0  0  0  0  0  0  0  0
   -1.6274   -1.6762   -0.1473 H   0  0  0  0  0  0  0  0  0  0  0  0
   -3.6144    1.0698    0.2341 H   0  0  0  0  0  0  0  0  0  0  0  0
  1  2  1  0
  2  3  1  0
  3  4  1  0
  4  5  1  0
  5  6  1  0
  6  7  1  0
  7  8  2  0
  7  9  1  0
  9 10  1  0
 10 11  2  0
  4  2  1  0
 10  5  1  0
  1 12  1  0
  1 13  1  0
  2 14  1  1
  3 15  1  0
  3 16  1  0
  4 17  1  1
  6 18  1  0
  6 19  1  0
  9 20  1  0
M  END
$$$$

     RDKit          3D

 20 21  0  0  0  0  0  0  0  0999 V2000
   -1.9546   -0.1139    1.3729 N   0  0  0  0  0  0  0  0  0  0  0  0
   -2.0009    0.1939   -0.0405 C   0  0  2  0  0  0  0  0  0  0  0  0
   -1.5192   -0.8505   -0.9953 C   0  0  0  0  0  0  0  0  0  0  0  0
   -0.8195    0.5282   -0.8209 C   0  0  2  0  0  0  0  0  0  0  0  0
    0.5264    0.4110   -0.3721 N   0  0  0  0  0  0  0  0  0  0  0  0
    0.9311   -0.4176    0.7411 C   0  0  0  0  0  0  0  0  0  0  0  0
    2.4029   -0.2734    0.8531 C   0  0  0  0  0  0  0  0  0  0  0  0
    3.0807   -0.8822    1.7140 O   0  0  0  0  0  0  0  0  0  0  0  0
    2.8361    0.6215   -0.1358 N   0  0  0  0  0  0  0  0  0  0  0  0
    1.6951    1.0312   -0.8729 C   0  0  0  0  0  0  0  0  0  0  0  0
    1.7602    1.8413   -1.8375 O   0  0  0  0  0  0  0  0  0  0  0  0
   -2.6293    0.4977    1.9111 H   0  0  0  0  0  0  0  0  0  0  0  0
   -2.2854   -1.1002    1.5603 H   0  0  0  0  0  0  0  0  0  0  0  0
   -2.9574    0.6733   -0.3443 H   0  0  0  0  0  0  0  0  0  0  0  0
   -2.0118   -1.0160   -1.9576 H   0  0  0  0  0  0  0  0  0  0  0  0
   -1.0408   -1.7218   -0.5571 H   0  0  0  0  0  0  0  0  0  0  0  0
   -0.9522    1.2196   -1.7040 H   0  0  0  0  0  0  0  0  0  0  0  0
    0.7088   -1.4908    0.5696 H   0  0  0  0  0  0  0  0  0  0  0  0
    0.4080   -0.0682    1.6503 H   0  0  0  0  0  0  0  0  0  0  0  0
    3.8218    0.9168   -0.2830 H   0  0  0  0  0  0  0  0  0  0  0  0
  1  2  1  0
  2  3  1  0
  3  4  1  0
  4  5  1  0
  5  6  1  0
  6  7  1  0
  7  8  2  0
  7  9  1  0
  9 10  1  0
 10 11  2  0
  4  2  1  0
 10  5  1  0
  1 12  1  0
  1 13  1  0
  2 14  1  6
  3 15  1  0
  3 16  1  0
  4 17  1  6
  6 18  1  0
  6 19  1  0
  9 20  1  0
M  END
$$$$

     RDKit          3D

 20 21  0  0  0  0  0  0  0  0999 V2000
   -1.5268   -0.5662   -1.6356 N   0  0  0  0  0  0  0  0  0  0  0  0
   -1.7410   -0.9039   -0.2560 C   0  0  2  0  0  0  0  0  0  0  0  0
   -1.9533    0.2085    0.7403 C   0  0  0  0  0  0  0  0  0  0  0  0
   -0.7176   -0.7208    0.7867 C   0  0  2  0  0  0  0  0  0  0  0  0
    0.5055   -0.0137    0.5313 N   0  0  0  0  0  0  0  0  0  0  0  0
    0.8380    0.9880   -0.4359 C   0  0  0  0  0  0  0  0  0  0  0  0
    2.2612    0.6371   -0.7599 C   0  0  0  0  0  0  0  0  0  0  0  0
    2.8303    0.7284   -1.8836 O   0  0  0  0  0  0  0  0  0  0  0  0
    2.8077    0.1860    0.4740 N   0  0  0  0  0  0  0  0  0  0  0  0
    1.7141   -0.2232    1.2879 C   0  0  0  0  0  0  0  0  0  0  0  0
    1.7692   -0.6896    2.4655 O   0  0  0  0  0  0  0  0  0  0  0  0
   -1.9592   -1.2585   -2.3000 H   0  0  0  0  0  0  0  0  0  0  0  0
   -2.0354    0.3461   -1.8297 H   0  0  0  0  0  0  0  0  0  0  0  0
   -2.4715   -1.7389   -0.1246 H   0  0  0  0  0  0  0  0  0  0  0  0
   -1.8377    1.2098    0.3252 H   0  0  0  0  0  0  0  0  0  0  0  0
   -2.6980    0.0977    1.5367 H   0  0  0  0  0  0  0  0  0  0  0  0
   -0.7260   -1.4632    1.6094 H   0  0  0  0  0  0  0  0  0  0  0  0
    0.2109    1.0230   -1.3239 H   0  0  0  0  0  0  0  0  0  0  0  0
    0.9040    1.9812    0.0886 H   0  0  0  0  0  0  0  0  0  0  0  0
    3.8258    0.1723    0.7038 H   0  0  0  0  0  0  0  0  0  0  0  0
  1  2  1  0
  2  3  1  0
  3  4  1  0
  4  5  1  0
  5  6  1  0
  6  7  1  0
  7  8  2  0
  7  9  1  0
  9 10  1  0
 10 11  2  0
  4  2  1  0
 10  5  1  0
  1 12  1  0
  1 13  1  0
  2 14  1  6
  3 15  1  0
  3 16  1  0
  4 17  1  1
  6 18  1  0
  6 19  1  0
  9 20  1  0
M  END
$$$$

     RDKit          3D

 20 21  0  0  0  0  0  0  0  0999 V2000
   -1.5708   -0.4636    1.2950 N   0  0  0  0  0  0  0  0  0  0  0  0
   -1.8985   -0.0334   -0.0208 C   0  0  2  0  0  0  0  0  0  0  0  0
   -1.6189   -1.0216   -1.1167 C   0  0  0  0  0  0  0  0  0  0  0  0
   -0.8022    0.2060   -1.0676 C   0  0  2  0  0  0  0  0  0  0  0  0
    0.5161    0.2424   -0.5323 N   0  0  0  0  0  0  0  0  0  0  0  0
    1.1591   -0.6945    0.3468 C   0  0  0  0  0  0  0  0  0  0  0  0
    2.0062    0.2372    1.1603 C   0  0  0  0  0  0  0  0  0  0  0  0
    2.2860    0.1591    2.3789 O   0  0  0  0  0  0  0  0  0  0  0  0
    2.4460    1.2563    0.2639 N   0  0  0  0  0  0  0  0  0  0  0  0
    1.4832    1.2411   -0.8048 C   0  0  0  0  0  0  0  0  0  0  0  0
    1.5608    2.0308   -1.7976 O   0  0  0  0  0  0  0  0  0  0  0  0
   -1.7991    0.2890    1.9726 H   0  0  0  0  0  0  0  0  0  0  0  0
   -2.0893   -1.3173    1.6088 H   0  0  0  0  0  0  0  0  0  0  0  0
   -2.7777    0.6438   -0.1198 H   0  0  0  0  0  0  0  0  0  0  0  0
   -2.3975   -1.0473   -1.9196 H   0  0  0  0  0  0  0  0  0  0  0  0
   -1.1910   -2.0049   -0.8974 H   0  0  0  0  0  0  0  0  0  0  0  0
   -1.0265    1.0517   -1.7869 H   0  0  0  0  0  0  0  0  0  0  0  0
    0.5224   -1.3450    0.9277 H   0  0  0  0  0  0  0  0  0  0  0  0
    1.9197   -1.3119   -0.2329 H   0  0  0  0  0  0  0  0  0  0  0  0
    3.2720    1.8822    0.3424 H   0  0  0  0  0  0  0  0  0  0  0  0
  1  2  1  0
  2  3  1  0
  3  4  1  0
  4  5  1  0
  5  6  1  0
  6  7  1  0
  7  8  2  0
  7  9  1  0
  9 10  1  0
 10 11  2  0
  4  2  1  0
 10  5  1  0
  1 12  1  0
  1 13  1  0
  2 14  1  1
  3 15  1  0
  3 16  1  0
  4 17  1  6
  6 18  1  0
  6 19  1  0
  9 20  1  0
M  END
$$$$
