
     RDKit          3D

 21 21  0  0  0  0  0  0  0  0999 V2000
    2.8295    0.1397    0.1831 N   0  0  0  0  0  0  0  0  0  0  0  0
    1.6017   -0.2423   -0.4479 C   0  0  0  0  0  0  0  0  0  0  0  0
    0.4859    0.6509    0.0464 C   0  0  2  0  0  0  0  0  0  0  0  0
    0.2935    0.5696    1.4686 N   0  0  0  0  0  0  0  0  0  0  0  0
   -0.7457    0.3237   -0.7462 C   0  0  0  0  0  0  0  0  0  0  0  0
   -1.2188   -1.1093   -0.6296 C   0  0  0  0  0  0  0  0  0  0  0  0
   -2.5817   -0.6013   -0.6878 N   0  0  0  0  0  0  0  0  0  0  0  0
   -2.0599    0.6421   -0.1047 C   0  0  0  0  0  0  0  0  0  0  0  0
    3.6101    0.3268   -0.4570 H   0  0  0  0  0  0  0  0  0  0  0  0
    3.0666   -0.4845    0.9831 H   0  0  0  0  0  0  0  0  0  0  0  0
    1.3005   -1.2888   -0.2664 H   0  0  0  0  0  0  0  0  0  0  0  0
    1.7066   -0.0362   -1.5382 H   0  0  0  0  0  0  0  0  0  0  0  0
    0.7667    1.6963   -0.1972 H   0  0  0  0  0  0  0  0  0  0  0  0
    0.7524    1.3442    1.9912 H   0  0  0  0  0  0  0  0  0  0  0  0
    0.4877   -0.3760    1.8677 H   0  0  0  0  0  0  0  0  0  0  0  0
   -0.6578    0.6543   -1.7871 H   0  0  0  0  0  0  0  0  0  0  0  0
   -0.8964   -1.7030   -1.4971 H   0  0  0  0  0  0  0  0  0  0  0  0
   -0.9663   -1.5327    0.3644 H   0  0  0  0  0  0  0  0  0  0  0  0
   -3.1906   -1.1244   -0.0531 H   0  0  0  0  0  0  0  0  0  0  0  0
   -2.5257    1.5379   -0.5661 H   0  0  0  0  0  0  0  0  0  0  0  0
   -2.0582    0.6130    0.9993 H   0  0  0  0  0  0  0  0  0  0  0  0
  1  2  1  0
  2  3  1  0
  3  4  1  0
  3  5  1  0
  5  6  1  0
  6  7  1  0
  7  8  1  0
  8  5  1  0
  1  9  1  0
  1 10  1  0
  2 11  1  0
  2 12  1  0
  3 13  1  1
  4 14  1  0
  4 15  1  0
  5 16  1  0
  6 17  1  0
  6 18  1  0
  7 19  1  0
  8 20  1  0
  8 21  1  0
M  END
$$$$

     RDKit          3D

 21 21  0  0  0  0  0  0  0  0999 V2000
    2.8984   -0.3355    0.1947 N   0  0  0  0  0  0  0  0  0  0  0  0
    1.6737    0.3204   -0.2726 C   0  0  0  0  0  0  0  0  0  0  0  0
    0.4715   -0.1936    0.5311 C   0  0  2  0  0  0  0  0  0  0  0  0
    0.3707   -1.5738    0.3437 N   0  0  0  0  0  0  0  0  0  0  0  0
   -0.7137    0.6106    0.0788 C   0  0  0  0  0  0  0  0  0  0  0  0
   -2.0222    0.2588    0.7567 C   0  0  0  0  0  0  0  0  0  0  0  0
   -2.6512    0.6144   -0.5238 N   0  0  0  0  0  0  0  0  0  0  0  0
   -1.4503    0.0233   -1.1314 C   0  0  0  0  0  0  0  0  0  0  0  0
    3.1910    0.0765    1.1104 H   0  0  0  0  0  0  0  0  0  0  0  0
    3.6356   -0.0499   -0.5172 H   0  0  0  0  0  0  0  0  0  0  0  0
    1.7913    1.3973   -0.0432 H   0  0  0  0  0  0  0  0  0  0  0  0
    1.5268    0.1814   -1.3488 H   0  0  0  0  0  0  0  0  0  0  0  0
    0.6698    0.0468    1.5811 H   0  0  0  0  0  0  0  0  0  0  0  0
    0.3102   -1.9569   -0.5826 H   0  0  0  0  0  0  0  0  0  0  0  0
    0.6180   -2.1953    1.1196 H   0  0  0  0  0  0  0  0  0  0  0  0
   -0.5776    1.6870    0.0036 H   0  0  0  0  0  0  0  0  0  0  0  0
   -2.1671   -0.8427    0.8985 H   0  0  0  0  0  0  0  0  0  0  0  0
   -2.3080    0.8883    1.5956 H   0  0  0  0  0  0  0  0  0  0  0  0
   -2.5603    1.6637   -0.6277 H   0  0  0  0  0  0  0  0  0  0  0  0
   -1.5336   -1.0792   -1.0769 H   0  0  0  0  0  0  0  0  0  0  0  0
   -1.1729    0.4583   -2.0896 H   0  0  0  0  0  0  0  0  0  0  0  0
  1  2  1  0
  2  3  1  0
  3  4  1  0
  3  5  1  0
  5  6  1  0
  6  7  1  0
  7  8  1  0
  8  5  1  0
  1  9  1  0
  1 10  1  0
  2 11  1  0
  2 12  1  0
  3 13  1  1
  4 14  1  0
  4 15  1  0
  5 16  1  0
  6 17  1  0
  6 18  1  0
  7 19  1  0
  8 20  1  0
  8 21  1  0
M  END
$$$$

     RDKit          3D

 21 21  0  0  0  0  0  0  0  0999 V2000
    2.5900    0.7611    0.6113 N   0  0  0  0  0  0  0  0  0  0  0  0
    1.5235    0.3011   -0.2771 C   0  0  0  0  0  0  0  0  0  0  0  0
    0.3687   -0.2514    0.4918 C   0  0  2  0  0  0  0  0  0  0  0  0
    0.8010   -1.3809    1.3074 N   0  0  0  0  0  0  0  0  0  0  0  0
   -0.7578   -0.6020   -0.4125 C   0  0  0  0  0  0  0  0  0  0  0  0
   -1.2866    0.5819   -1.1713 C   0  0  0  0  0  0  0  0  0  0  0  0
   -2.0048    0.9353    0.0702 N   0  0  0  0  0  0  0  0  0  0  0  0
   -2.1449   -0.5194    0.2515 C   0  0  0  0  0  0  0  0  0  0  0  0
    2.4134    1.7784    0.8566 H   0  0  0  0  0  0  0  0  0  0  0  0
    3.4684    0.7488    0.0801 H   0  0  0  0  0  0  0  0  0  0  0  0
    1.2990    1.1124   -0.9665 H   0  0  0  0  0  0  0  0  0  0  0  0
    1.9903   -0.5158   -0.8854 H   0  0  0  0  0  0  0  0  0  0  0  0
    0.0800    0.5385    1.2458 H   0  0  0  0  0  0  0  0  0  0  0  0
    1.1578   -2.1360    0.6685 H   0  0  0  0  0  0  0  0  0  0  0  0
    1.6565   -1.0362    1.8356 H   0  0  0  0  0  0  0  0  0  0  0  0
   -0.6296   -1.5279   -1.0102 H   0  0  0  0  0  0  0  0  0  0  0  0
   -2.0134    0.2359   -1.9546 H   0  0  0  0  0  0  0  0  0  0  0  0
   -0.5698    1.3250   -1.4949 H   0  0  0  0  0  0  0  0  0  0  0  0
   -2.8798    1.4429   -0.0754 H   0  0  0  0  0  0  0  0  0  0  0  0
   -2.1766   -0.8548    1.2831 H   0  0  0  0  0  0  0  0  0  0  0  0
   -2.8854   -0.9368   -0.4544 H   0  0  0  0  0  0  0  0  0  0  0  0
  1  2  1  0
  2  3  1  0
  3  4  1  0
  3  5  1  0
  5  6  1  0
  6  7  1  0
  7  8  1  0
  8  5  1  0
  1  9  1  0
  1 10  1  0
  2 11  1  0
  2 12  1  0
  3 13  1  1
  4 14  1  0
  4 15  1  0
  5 16  1  0
  6 17  1  0
  6 18  1  0
  7 19  1  0
  8 20  1  0
  8 21  1  0
M  END
$$$$

     RDKit          3D

 21 21  0  0  0  0  0  0  0  0999 V2000
    2.7719    0.5541    0.5163 N   0  0  0  0  0  0  0  0  0  0  0  0
    1.6470    0.4969   -0.4215 C   0  0  0  0  0  0  0  0  0  0  0  0
    0.5190   -0.1977    0.3536 C   0  0  2  0  0  0  0  0  0  0  0  0
    0.9988   -1.4911    0.7186 N   0  0  0  0  0  0  0  0  0  0  0  0
   -0.6846   -0.1907   -0.5208 C   0  0  0  0  0  0  0  0  0  0  0  0
   -1.9298   -0.8136    0.0077 C   0  0  0  0  0  0  0  0  0  0  0  0
   -2.6851    0.2790   -0.6178 N   0  0  0  0  0  0  0  0  0  0  0  0
   -1.4976    1.1063   -0.4118 C   0  0  0  0  0  0  0  0  0  0  0  0
    2.9310    1.5202    0.8635 H   0  0  0  0  0  0  0  0  0  0  0  0
    3.6212    0.0936    0.1354 H   0  0  0  0  0  0  0  0  0  0  0  0
    1.3454    1.4945   -0.7727 H   0  0  0  0  0  0  0  0  0  0  0  0
    1.9434   -0.1305   -1.2817 H   0  0  0  0  0  0  0  0  0  0  0  0
    0.2959    0.3628    1.2768 H   0  0  0  0  0  0  0  0  0  0  0  0
    0.9826   -2.2040   -0.0126 H   0  0  0  0  0  0  0  0  0  0  0  0
    0.7712   -1.7954    1.6698 H   0  0  0  0  0  0  0  0  0  0  0  0
   -0.5140   -0.4522   -1.5832 H   0  0  0  0  0  0  0  0  0  0  0  0
   -2.2168   -1.7909   -0.4401 H   0  0  0  0  0  0  0  0  0  0  0  0
   -2.0466   -0.7859    1.1117 H   0  0  0  0  0  0  0  0  0  0  0  0
   -3.4884    0.6106   -0.0489 H   0  0  0  0  0  0  0  0  0  0  0  0
   -1.2944    1.8404   -1.1907 H   0  0  0  0  0  0  0  0  0  0  0  0
   -1.4702    1.4936    0.6483 H   0  0  0  0  0  0  0  0  0  0  0  0
  1  2  1  0
  2  3  1  0
  3  4  1  0
  3  5  1  0
  5  6  1  0
  6  7  1  0
  7  8  1  0
  8  5  1  0
  1  9  1  0
  1 10  1  0
  2 11  1  0
  2 12  1  0
  3 13  1  1
  4 14  1  0
  4 15  1  0
  5 16  1  0
  6 17  1  0
  6 18  1  0
  7 19  1  0
  8 20  1  0
  8 21  1  0
M  END
$$$$

     RDKit          3D

 21 21  0  0  0  0  0  0  0  0999 V2000
    1.6885   -0.0411    1.3761 N   0  0  0  0  0  0  0  0  0  0  0  0
    1.5856   -0.9149    0.1985 C   0  0  0  0  0  0  0  0  0  0  0  0
    0.5702   -0.3345   -0.7948 C   0  0  2  0  0  0  0  0  0  0  0  0
    1.0254    0.9457   -1.1786 N   0  0  0  0  0  0  0  0  0  0  0  0
   -0.7693   -0.4254   -0.1897 C   0  0  0  0  0  0  0  0  0  0  0  0
   -1.0335    0.2777    1.0947 C   0  0  0  0  0  0  0  0  0  0  0  0
   -2.4382    0.3476    0.6468 N   0  0  0  0  0  0  0  0  0  0  0  0
   -1.8566    0.4565   -0.7071 C   0  0  0  0  0  0  0  0  0  0  0  0
    1.7123    0.9725    1.0598 H   0  0  0  0  0  0  0  0  0  0  0  0
    2.5778   -0.2869    1.8672 H   0  0  0  0  0  0  0  0  0  0  0  0
    1.2843   -1.9174    0.5166 H   0  0  0  0  0  0  0  0  0  0  0  0
    2.5913   -0.9816   -0.2444 H   0  0  0  0  0  0  0  0  0  0  0  0
    0.6052   -1.0093   -1.6753 H   0  0  0  0  0  0  0  0  0  0  0  0
    1.8156    0.8307   -1.8624 H   0  0  0  0  0  0  0  0  0  0  0  0
    0.3329    1.6226   -1.4945 H   0  0  0  0  0  0  0  0  0  0  0  0
   -1.1231   -1.4773   -0.1376 H   0  0  0  0  0  0  0  0  0  0  0  0
   -0.6596    1.3282    1.1450 H   0  0  0  0  0  0  0  0  0  0  0  0
   -0.9866   -0.2962    2.0214 H   0  0  0  0  0  0  0  0  0  0  0  0
   -2.8313   -0.6387    0.7142 H   0  0  0  0  0  0  0  0  0  0  0  0
   -2.4892    0.0200   -1.4991 H   0  0  0  0  0  0  0  0  0  0  0  0
   -1.6020    1.5219   -0.8567 H   0  0  0  0  0  0  0  0  0  0  0  0
  1  2  1  0
  2  3  1  0
  3  4  1  0
  3  5  1  0
  5  6  1  0
  6  7  1  0
  7  8  1  0
  8  5  1  0
  1  9  1  0
  1 10  1  0
  2 11  1  0
  2 12  1  0
  3 13  1  6
  4 14  1  0
  4 15  1  0
  5 16  1  0
  6 17  1  0
  6 18  1  0
  7 19  1  0
  8 20  1  0
  8 21  1  0
M  END
$$$$

     RDKit          3D

 21 21  0  0  0  0  0  0  0  0999 V2000
   -2.3182   -0.4024    0.0286 N   0  0  0  0  0  0  0  0  0  0  0  0
   -1.4232    0.2775    0.9491 C   0  0  0  0  0  0  0  0  0  0  0  0
   -0.2105    0.7134    0.1186 C   0  0  2  0  0  0  0  0  0  0  0  0
   -0.6325    1.5924   -0.9305 N   0  0  0  0  0  0  0  0  0  0  0  0
    0.4740   -0.5251   -0.3427 C   0  0  0  0  0  0  0  0  0  0  0  0
    1.6921   -0.3824   -1.1754 C   0  0  0  0  0  0  0  0  0  0  0  0
    2.5218   -0.3009    0.0109 N   0  0  0  0  0  0  0  0  0  0  0  0
    1.4630   -0.9996    0.7269 C   0  0  0  0  0  0  0  0  0  0  0  0
   -3.2379    0.0585   -0.0621 H   0  0  0  0  0  0  0  0  0  0  0  0
   -2.3678   -1.4270    0.1947 H   0  0  0  0  0  0  0  0  0  0  0  0
   -1.0078   -0.4815    1.6705 H   0  0  0  0  0  0  0  0  0  0  0  0
   -1.8780    1.1295    1.4572 H   0  0  0  0  0  0  0  0  0  0  0  0
    0.4370    1.3215    0.8092 H   0  0  0  0  0  0  0  0  0  0  0  0
   -1.3480    1.1789   -1.5628 H   0  0  0  0  0  0  0  0  0  0  0  0
   -1.0506    2.4391   -0.4819 H   0  0  0  0  0  0  0  0  0  0  0  0
   -0.2166   -1.3272   -0.6577 H   0  0  0  0  0  0  0  0  0  0  0  0
    1.7587    0.4380   -1.8819 H   0  0  0  0  0  0  0  0  0  0  0  0
    1.9158   -1.3529   -1.7013 H   0  0  0  0  0  0  0  0  0  0  0  0
    2.5755    0.6916    0.3269 H   0  0  0  0  0  0  0  0  0  0  0  0
    1.5534   -2.0856    0.7806 H   0  0  0  0  0  0  0  0  0  0  0  0
    1.2998   -0.5560    1.7232 H   0  0  0  0  0  0  0  0  0  0  0  0
  1  2  1  0
  2  3  1  0
  3  4  1  0
  3  5  1  0
  5  6  1  0
  6  7  1  0
  7  8  1  0
  8  5  1  0
  1  9  1  0
  1 10  1  0
  2 11  1  0
  2 12  1  0
  3 13  1  1
  4 14  1  0
  4 15  1  0
  5 16  1  0
  6 17  1  0
  6 18  1  0
  7 19  1  0
  8 20  1  0
  8 21  1  0
M  END
$$$$

     RDKit          3D

 21 21  0  0  0  0  0  0  0  0999 V2000
    2.5545    0.7958    0.1784 N   0  0  0  0  0  0  0  0  0  0  0  0
    1.3847    0.4694   -0.6103 C   0  0  0  0  0  0  0  0  0  0  0  0
    0.3770   -0.1389    0.3411 C   0  0  2  0  0  0  0  0  0  0  0  0
    1.0093   -1.3257    0.9090 N   0  0  0  0  0  0  0  0  0  0  0  0
   -0.8680   -0.5649   -0.3746 C   0  0  0  0  0  0  0  0  0  0  0  0
   -1.6233    0.5029   -1.0894 C   0  0  0  0  0  0  0  0  0  0  0  0
   -2.3563    0.7629    0.1411 N   0  0  0  0  0  0  0  0  0  0  0  0
   -2.0512   -0.5943    0.5531 C   0  0  0  0  0  0  0  0  0  0  0  0
    3.3934    0.2373   -0.0792 H   0  0  0  0  0  0  0  0  0  0  0  0
    2.7293    1.8173    0.2209 H   0  0  0  0  0  0  0  0  0  0  0  0
    0.9778    1.3520   -1.1409 H   0  0  0  0  0  0  0  0  0  0  0  0
    1.6570   -0.3345   -1.3370 H   0  0  0  0  0  0  0  0  0  0  0  0
    0.1816    0.6254    1.1237 H   0  0  0  0  0  0  0  0  0  0  0  0
    1.8840   -1.1150    1.4111 H   0  0  0  0  0  0  0  0  0  0  0  0
    1.2528   -1.9497    0.1036 H   0  0  0  0  0  0  0  0  0  0  0  0
   -0.6881   -1.4980   -0.9460 H   0  0  0  0  0  0  0  0  0  0  0  0
   -1.0415    1.3696   -1.4633 H   0  0  0  0  0  0  0  0  0  0  0  0
   -2.2649    0.0706   -1.8862 H   0  0  0  0  0  0  0  0  0  0  0  0
   -1.9374    1.4800    0.7512 H   0  0  0  0  0  0  0  0  0  0  0  0
   -1.7562   -0.6096    1.6263 H   0  0  0  0  0  0  0  0  0  0  0  0
   -2.8145   -1.3525    0.2814 H   0  0  0  0  0  0  0  0  0  0  0  0
  1  2  1  0
  2  3  1  0
  3  4  1  0
  3  5  1  0
  5  6  1  0
  6  7  1  0
  7  8  1  0
  8  5  1  0
  1  9  1  0
  1 10  1  0
  2 11  1  0
  2 12  1  0
  3 13  1  1
  4 14  1  0
  4 15  1  0
  5 16  1  0
  6 17  1  0
  6 18  1  0
  7 19  1  0
  8 20  1  0
  8 21  1  0
M  END
$$$$

     RDKit          3D

 21 21  0  0  0  0  0  0  0  0999 V2000
    2.5298    0.6838    0.4176 N   0  0  0  0  0  0  0  0  0  0  0  0
    1.1815    0.6741   -0.1275 C   0  0  0  0  0  0  0  0  0  0  0  0
    0.4243   -0.4234    0.5136 C   0  0  2  0  0  0  0  0  0  0  0  0
    1.0993   -1.6791    0.2232 N   0  0  0  0  0  0  0  0  0  0  0  0
   -1.0098   -0.5314    0.1310 C   0  0  0  0  0  0  0  0  0  0  0  0
   -1.7573    0.7509    0.4937 C   0  0  0  0  0  0  0  0  0  0  0  0
   -1.9197    1.1117   -0.8860 N   0  0  0  0  0  0  0  0  0  0  0  0
   -1.4328   -0.2203   -1.2368 C   0  0  0  0  0  0  0  0  0  0  0  0
    2.5627    0.5869    1.4387 H   0  0  0  0  0  0  0  0  0  0  0  0
    3.1952    0.1215   -0.1207 H   0  0  0  0  0  0  0  0  0  0  0  0
    1.3012    0.4203   -1.2168 H   0  0  0  0  0  0  0  0  0  0  0  0
    0.7688    1.6808    0.0137 H   0  0  0  0  0  0  0  0  0  0  0  0
    0.5088   -0.2922    1.6294 H   0  0  0  0  0  0  0  0  0  0  0  0
    0.4200   -2.4510    0.0382 H   0  0  0  0  0  0  0  0  0  0  0  0
    1.8140   -1.9227    0.9357 H   0  0  0  0  0  0  0  0  0  0  0  0
   -1.5061   -1.4070    0.5904 H   0  0  0  0  0  0  0  0  0  0  0  0
   -2.7165    0.5947    1.0014 H   0  0  0  0  0  0  0  0  0  0  0  0
   -1.1313    1.5080    1.0145 H   0  0  0  0  0  0  0  0  0  0  0  0
   -1.3124    1.8762   -1.2458 H   0  0  0  0  0  0  0  0  0  0  0  0
   -0.6980   -0.2459   -2.0557 H   0  0  0  0  0  0  0  0  0  0  0  0
   -2.3217   -0.8359   -1.5517 H   0  0  0  0  0  0  0  0  0  0  0  0
  1  2  1  0
  2  3  1  0
  3  4  1  0
  3  5  1  0
  5  6  1  0
  6  7  1  0
  7  8  1  0
  8  5  1  0
  1  9  1  0
  1 10  1  0
  2 11  1  0
  2 12  1  0
  3 13  1  1
  4 14  1  0
  4 15  1  0
  5 16  1  0
  6 17  1  0
  6 18  1  0
  7 19  1  0
  8 20  1  0
  8 21  1  0
M  END
$$$$
