
     RDKit          3D

 22 22  0  0  0  0  0  0  0  0999 V2000
    3.0922    0.9852   -1.1255 C   0  0  0  0  0  0  0  0  0  0  0  0
    2.2745   -0.1717   -1.5096 N   0  0  0  0  0  0  0  0  0  0  0  0
    1.6448   -0.9512   -0.0988 S   0  0  0  0  0  6  0  0  0  0  0  0
    2.6092   -0.7527    1.0272 O   0  0  0  0  0  0  0  0  0  0  0  0
    1.5424   -2.4277   -0.3623 O   0  0  0  0  0  0  0  0  0  0  0  0
    0.1132   -0.2868    0.3448 N   0  0  0  0  0  0  0  0  0  0  0  0
   -0.9634   -0.9803   -0.2881 C   0  0  1  0  0  0  0  0  0  0  0  0
   -2.1506   -1.2822    0.6226 C   0  0  0  0  0  0  0  0  0  0  0  0
   -2.2709   -0.3110   -0.5209 C   0  0  1  0  0  0  0  0  0  0  0  0
   -2.4577    1.0869   -0.1077 C   0  0  0  0  0  0  0  0  0  0  0  0
   -3.1923    1.8423   -0.7909 O   0  0  0  0  0  0  0  0  0  0  0  0
   -1.8628    1.6392    1.0124 O   0  0  0  0  0  0  0  0  0  0  0  0
    3.3196    0.8624   -0.0548 H   0  0  0  0  0  0  0  0  0  0  0  0
    4.0437    0.8970   -1.6972 H   0  0  0  0  0  0  0  0  0  0  0  0
    2.5642    1.9264   -1.3603 H   0  0  0  0  0  0  0  0  0  0  0  0
    1.5107    0.1405   -2.1572 H   0  0  0  0  0  0  0  0  0  0  0  0
    0.1066    0.7418    0.1420 H   0  0  0  0  0  0  0  0  0  0  0  0
   -0.6379   -1.8234   -0.9563 H   0  0  0  0  0  0  0  0  0  0  0  0
   -2.1387   -0.8996    1.6524 H   0  0  0  0  0  0  0  0  0  0  0  0
   -2.6436   -2.2733    0.5229 H   0  0  0  0  0  0  0  0  0  0  0  0
   -2.8089   -0.6145   -1.4318 H   0  0  0  0  0  0  0  0  0  0  0  0
   -1.6943    2.6526    1.0690 H   0  0  0  0  0  0  0  0  0  0  0  0
  1  2  1  0
  2  3  1  0
  3  4  2  0
  3  5  2  0
  3  6  1  0
  6  7  1  0
  7  8  1  0
  8  9  1  0
  9 10  1  0
 10 11  2  0
 10 12  1  0
  9  7  1  0
  1 13  1  0
  1 14  1  0
  1 15  1  0
  2 16  1  0
  6 17  1  0
  7 18  1  6
  8 19  1  0
  8 20  1  0
  9 21  1  6
 12 22  1  0
M  END
$$$$

     RDKit          3D

 22 22  0  0  0  0  0  0  0  0999 V2000
    3.0705    1.0662    0.9121 C   0  0  0  0  0  0  0  0  0  0  0  0
    2.2471    1.1844   -0.2789 N   0  0  0  0  0  0  0  0  0  0  0  0
    1.6848   -0.3503   -0.8003 S   0  0  0  0  0  6  0  0  0  0  0  0
    2.6633   -1.4143   -0.3958 O   0  0  0  0  0  0  0  0  0  0  0  0
    1.4619   -0.3884   -2.2939 O   0  0  0  0  0  0  0  0  0  0  0  0
    0.1609   -0.7389   -0.0599 N   0  0  0  0  0  0  0  0  0  0  0  0
   -0.9091   -0.2529   -0.8948 C   0  0  1  0  0  0  0  0  0  0  0  0
   -1.9982   -1.3068   -1.1519 C   0  0  0  0  0  0  0  0  0  0  0  0
   -2.2932   -0.0861   -0.3677 C   0  0  1  0  0  0  0  0  0  0  0  0
   -2.4586   -0.1438    1.0886 C   0  0  0  0  0  0  0  0  0  0  0  0
   -1.8653   -0.9803    1.8132 O   0  0  0  0  0  0  0  0  0  0  0  0
   -3.2974    0.7482    1.7222 O   0  0  0  0  0  0  0  0  0  0  0  0
    2.4962    0.5753    1.7341 H   0  0  0  0  0  0  0  0  0  0  0  0
    3.4094    2.0630    1.2245 H   0  0  0  0  0  0  0  0  0  0  0  0
    3.9745    0.4676    0.6516 H   0  0  0  0  0  0  0  0  0  0  0  0
    2.7909    1.6949   -0.9970 H   0  0  0  0  0  0  0  0  0  0  0  0
    0.1114   -0.3204    0.8983 H   0  0  0  0  0  0  0  0  0  0  0  0
   -0.5848    0.2890   -1.8192 H   0  0  0  0  0  0  0  0  0  0  0  0
   -1.8999   -2.2912   -0.6754 H   0  0  0  0  0  0  0  0  0  0  0  0
   -2.4068   -1.3427   -2.1696 H   0  0  0  0  0  0  0  0  0  0  0  0
   -2.9407    0.7020   -0.8615 H   0  0  0  0  0  0  0  0  0  0  0  0
   -3.4170    0.8254    2.7214 H   0  0  0  0  0  0  0  0  0  0  0  0
  1  2  1  0
  2  3  1  0
  3  4  2  0
  3  5  2  0
  3  6  1  0
  6  7  1  0
  7  8  1  0
  8  9  1  0
  9 10  1  0
 10 11  2  0
 10 12  1  0
  9  7  1  0
  1 13  1  0
  1 14  1  0
  1 15  1  0
  2 16  1  0
  6 17  1  0
  7 18  1  6
  8 19  1  0
  8 20  1  0
  9 21  1  6
 12 22  1  0
M  END
$$$$

     RDKit          3D

 22 22  0  0  0  0  0  0  0  0999 V2000
   -3.4765   -0.3104    1.0497 C   0  0  0  0  0  0  0  0  0  0  0  0
   -2.7863    0.1923   -0.1006 N   0  0  0  0  0  0  0  0  0  0  0  0
   -1.5352   -0.8164   -0.6601 S   0  0  0  0  0  6  0  0  0  0  0  0
   -1.4047   -0.6410   -2.1491 O   0  0  0  0  0  0  0  0  0  0  0  0
   -1.8818   -2.2490   -0.3879 O   0  0  0  0  0  0  0  0  0  0  0  0
   -0.0130   -0.4735    0.0555 N   0  0  0  0  0  0  0  0  0  0  0  0
    0.7265    0.5080   -0.7052 C   0  0  1  0  0  0  0  0  0  0  0  0
    1.4917    1.5592    0.0497 C   0  0  0  0  0  0  0  0  0  0  0  0
    2.1987    0.4763   -0.7777 C   0  0  1  0  0  0  0  0  0  0  0  0
    3.0157   -0.4409    0.0064 C   0  0  0  0  0  0  0  0  0  0  0  0
    2.5576   -0.9091    1.0738 O   0  0  0  0  0  0  0  0  0  0  0  0
    4.2852   -0.8137   -0.3895 O   0  0  0  0  0  0  0  0  0  0  0  0
   -3.1330    0.2479    1.9485 H   0  0  0  0  0  0  0  0  0  0  0  0
   -4.5747   -0.1507    0.9893 H   0  0  0  0  0  0  0  0  0  0  0  0
   -3.2970   -1.3882    1.2169 H   0  0  0  0  0  0  0  0  0  0  0  0
   -2.5362    1.1889    0.0004 H   0  0  0  0  0  0  0  0  0  0  0  0
   -0.2181   -0.0237    0.9967 H   0  0  0  0  0  0  0  0  0  0  0  0
    0.1930    0.8674   -1.6083 H   0  0  0  0  0  0  0  0  0  0  0  0
    1.4927    1.4573    1.1429 H   0  0  0  0  0  0  0  0  0  0  0  0
    1.5324    2.5978   -0.3570 H   0  0  0  0  0  0  0  0  0  0  0  0
    2.6769    0.8551   -1.7231 H   0  0  0  0  0  0  0  0  0  0  0  0
    4.6865   -1.7337   -0.1511 H   0  0  0  0  0  0  0  0  0  0  0  0
  1  2  1  0
  2  3  1  0
  3  4  2  0
  3  5  2  0
  3  6  1  0
  6  7  1  0
  7  8  1  0
  8  9  1  0
  9 10  1  0
 10 11  2  0
 10 12  1  0
  9  7  1  0
  1 13  1  0
  1 14  1  0
  1 15  1  0
  2 16  1  0
  6 17  1  0
  7 18  1  6
  8 19  1  0
  8 20  1  0
  9 21  1  6
 12 22  1  0
M  END
$$$$

     RDKit          3D

 22 22  0  0  0  0  0  0  0  0999 V2000
   -3.0817    0.0311    0.5381 C   0  0  0  0  0  0  0  0  0  0  0  0
   -2.3534   -1.1456    0.9071 N   0  0  0  0  0  0  0  0  0  0  0  0
   -1.1687   -1.6127   -0.2449 S   0  0  0  0  0  6  0  0  0  0  0  0
   -1.0305   -3.1222   -0.2649 O   0  0  0  0  0  0  0  0  0  0  0  0
   -1.6405   -1.1352   -1.6030 O   0  0  0  0  0  0  0  0  0  0  0  0
    0.3469   -0.8659    0.0997 N   0  0  0  0  0  0  0  0  0  0  0  0
    0.4332    0.3846   -0.5750 C   0  0  1  0  0  0  0  0  0  0  0  0
    0.9497    1.5412    0.2472 C   0  0  0  0  0  0  0  0  0  0  0  0
    1.7072    0.9896   -0.9944 C   0  0  1  0  0  0  0  0  0  0  0  0
    3.0154    0.4462   -0.6490 C   0  0  0  0  0  0  0  0  0  0  0  0
    4.0162    0.7675   -1.3392 O   0  0  0  0  0  0  0  0  0  0  0  0
    3.2602   -0.4196    0.4049 O   0  0  0  0  0  0  0  0  0  0  0  0
   -2.7336    0.4849   -0.4269 H   0  0  0  0  0  0  0  0  0  0  0  0
   -2.9708    0.7784    1.3504 H   0  0  0  0  0  0  0  0  0  0  0  0
   -4.1662   -0.2363    0.4618 H   0  0  0  0  0  0  0  0  0  0  0  0
   -1.9497   -1.0686    1.8611 H   0  0  0  0  0  0  0  0  0  0  0  0
    0.4230   -0.7813    1.1357 H   0  0  0  0  0  0  0  0  0  0  0  0
   -0.4636    0.6525   -1.1869 H   0  0  0  0  0  0  0  0  0  0  0  0
    1.3387    1.3090    1.2372 H   0  0  0  0  0  0  0  0  0  0  0  0
    0.4878    2.5321    0.1476 H   0  0  0  0  0  0  0  0  0  0  0  0
    1.6812    1.6706   -1.8688 H   0  0  0  0  0  0  0  0  0  0  0  0
    3.8991   -1.2001    0.2918 H   0  0  0  0  0  0  0  0  0  0  0  0
  1  2  1  0
  2  3  1  0
  3  4  2  0
  3  5  2  0
  3  6  1  0
  6  7  1  0
  7  8  1  0
  8  9  1  0
  9 10  1  0
 10 11  2  0
 10 12  1  0
  9  7  1  0
  1 13  1  0
  1 14  1  0
  1 15  1  0
  2 16  1  0
  6 17  1  0
  7 18  1  6
  8 19  1  0
  8 20  1  0
  9 21  1  6
 12 22  1  0
M  END
$$$$

     RDKit          3D

 22 22  0  0  0  0  0  0  0  0999 V2000
   -3.4803   -0.2398   -0.6115 C   0  0  0  0  0  0  0  0  0  0  0  0
   -2.7170   -0.4140    0.6119 N   0  0  0  0  0  0  0  0  0  0  0  0
   -1.4888    0.7635    0.6461 S   0  0  0  0  0  6  0  0  0  0  0  0
   -1.9715    2.0034   -0.0564 O   0  0  0  0  0  0  0  0  0  0  0  0
   -1.1780    1.1185    2.0747 O   0  0  0  0  0  0  0  0  0  0  0  0
   -0.0233    0.2440   -0.0882 N   0  0  0  0  0  0  0  0  0  0  0  0
    0.8728   -0.3885    0.8085 C   0  0  1  0  0  0  0  0  0  0  0  0
    1.8500   -1.4350    0.4270 C   0  0  0  0  0  0  0  0  0  0  0  0
    2.3453   -0.0108    0.6233 C   0  0  1  0  0  0  0  0  0  0  0  0
    2.8013    0.6131   -0.6253 C   0  0  0  0  0  0  0  0  0  0  0  0
    3.8012    1.4045   -0.5448 O   0  0  0  0  0  0  0  0  0  0  0  0
    2.2500    0.4192   -1.8643 O   0  0  0  0  0  0  0  0  0  0  0  0
   -3.2927    0.7672   -1.0501 H   0  0  0  0  0  0  0  0  0  0  0  0
   -4.5662   -0.4243   -0.4466 H   0  0  0  0  0  0  0  0  0  0  0  0
   -3.1632   -0.9877   -1.3846 H   0  0  0  0  0  0  0  0  0  0  0  0
   -2.2864   -1.3634    0.5659 H   0  0  0  0  0  0  0  0  0  0  0  0
    0.4483    1.0496   -0.5984 H   0  0  0  0  0  0  0  0  0  0  0  0
    0.4765   -0.4272    1.8666 H   0  0  0  0  0  0  0  0  0  0  0  0
    1.8435   -1.8822   -0.5678 H   0  0  0  0  0  0  0  0  0  0  0  0
    2.1580   -2.1503    1.2280 H   0  0  0  0  0  0  0  0  0  0  0  0
    2.9063    0.2060    1.5618 H   0  0  0  0  0  0  0  0  0  0  0  0
    2.4143    1.1340   -2.5761 H   0  0  0  0  0  0  0  0  0  0  0  0
  1  2  1  0
  2  3  1  0
  3  4  2  0
  3  5  2  0
  3  6  1  0
  6  7  1  0
  7  8  1  0
  8  9  1  0
  9 10  1  0
 10 11  2  0
 10 12  1  0
  9  7  1  0
  1 13  1  0
  1 14  1  0
  1 15  1  0
  2 16  1  0
  6 17  1  0
  7 18  1  1
  8 19  1  0
  8 20  1  0
  9 21  1  1
 12 22  1  0
M  END
$$$$

     RDKit          3D

 22 22  0  0  0  0  0  0  0  0999 V2000
    3.0081   -1.5261    0.3908 C   0  0  0  0  0  0  0  0  0  0  0  0
    2.5283   -0.2341    0.8426 N   0  0  0  0  0  0  0  0  0  0  0  0
    1.7603    0.6253   -0.4307 S   0  0  0  0  0  6  0  0  0  0  0  0
    2.4153    0.2039   -1.7176 O   0  0  0  0  0  0  0  0  0  0  0  0
    2.0072    2.0986   -0.2603 O   0  0  0  0  0  0  0  0  0  0  0  0
    0.0991    0.3286   -0.5501 N   0  0  0  0  0  0  0  0  0  0  0  0
   -0.7244    1.2265    0.2281 C   0  0  1  0  0  0  0  0  0  0  0  0
   -2.0800    1.6319   -0.3672 C   0  0  0  0  0  0  0  0  0  0  0  0
   -2.0153    0.5851    0.7228 C   0  0  1  0  0  0  0  0  0  0  0  0
   -2.2960   -0.8204    0.3435 C   0  0  0  0  0  0  0  0  0  0  0  0
   -1.8726   -1.2627   -0.7780 O   0  0  0  0  0  0  0  0  0  0  0  0
   -3.0080   -1.6871    1.1652 O   0  0  0  0  0  0  0  0  0  0  0  0
    4.0072   -1.4081   -0.1104 H   0  0  0  0  0  0  0  0  0  0  0  0
    3.1426   -2.2367    1.2284 H   0  0  0  0  0  0  0  0  0  0  0  0
    2.2808   -1.9984   -0.3089 H   0  0  0  0  0  0  0  0  0  0  0  0
    2.0068   -0.2582    1.7192 H   0  0  0  0  0  0  0  0  0  0  0  0
   -0.1894    0.2869   -1.5317 H   0  0  0  0  0  0  0  0  0  0  0  0
   -0.2624    2.0243    0.8346 H   0  0  0  0  0  0  0  0  0  0  0  0
   -2.5000    2.6151   -0.0778 H   0  0  0  0  0  0  0  0  0  0  0  0
   -2.2812    1.3140   -1.4075 H   0  0  0  0  0  0  0  0  0  0  0  0
   -2.4169    0.8785    1.7036 H   0  0  0  0  0  0  0  0  0  0  0  0
   -3.6095   -2.3872    0.7396 H   0  0  0  0  0  0  0  0  0  0  0  0
  1  2  1  0
  2  3  1  0
  3  4  2  0
  3  5  2  0
  3  6  1  0
  6  7  1  0
  7  8  1  0
  8  9  1  0
  9 10  1  0
 10 11  2  0
 10 12  1  0
  9  7  1  0
  1 13  1  0
  1 14  1  0
  1 15  1  0
  2 16  1  0
  6 17  1  0
  7 18  1  1
  8 19  1  0
  8 20  1  0
  9 21  1  1
 12 22  1  0
M  END
$$$$

     RDKit          3D

 22 22  0  0  0  0  0  0  0  0999 V2000
    3.5059    0.6009   -0.1931 C   0  0  0  0  0  0  0  0  0  0  0  0
    2.6909   -0.4653    0.4088 N   0  0  0  0  0  0  0  0  0  0  0  0
    1.4429   -0.9431   -0.6326 S   0  0  0  0  0  6  0  0  0  0  0  0
    1.9437   -0.8091   -2.0602 O   0  0  0  0  0  0  0  0  0  0  0  0
    1.1793   -2.4135   -0.4212 O   0  0  0  0  0  0  0  0  0  0  0  0
   -0.0098   -0.0740   -0.4387 N   0  0  0  0  0  0  0  0  0  0  0  0
   -0.8847   -0.6853    0.5237 C   0  0  1  0  0  0  0  0  0  0  0  0
   -1.5889    0.1928    1.5350 C   0  0  0  0  0  0  0  0  0  0  0  0
   -2.3483   -0.5971    0.4473 C   0  0  1  0  0  0  0  0  0  0  0  0
   -3.0709    0.2665   -0.4774 C   0  0  0  0  0  0  0  0  0  0  0  0
   -4.2775    0.0212   -0.7249 O   0  0  0  0  0  0  0  0  0  0  0  0
   -2.5202    1.3642   -1.1220 O   0  0  0  0  0  0  0  0  0  0  0  0
    4.3821    0.8272    0.4367 H   0  0  0  0  0  0  0  0  0  0  0  0
    2.8631    1.5030   -0.2906 H   0  0  0  0  0  0  0  0  0  0  0  0
    3.8776    0.2999   -1.1777 H   0  0  0  0  0  0  0  0  0  0  0  0
    2.4208   -0.2319    1.3685 H   0  0  0  0  0  0  0  0  0  0  0  0
    0.1110    0.9413   -0.3250 H   0  0  0  0  0  0  0  0  0  0  0  0
   -0.4729   -1.6114    0.9753 H   0  0  0  0  0  0  0  0  0  0  0  0
   -1.4778    1.2799    1.4084 H   0  0  0  0  0  0  0  0  0  0  0  0
   -1.6865   -0.1297    2.5716 H   0  0  0  0  0  0  0  0  0  0  0  0
   -2.9400   -1.4345    0.8770 H   0  0  0  0  0  0  0  0  0  0  0  0
   -3.1398    2.0982   -1.4549 H   0  0  0  0  0  0  0  0  0  0  0  0
  1  2  1  0
  2  3  1  0
  3  4  2  0
  3  5  2  0
  3  6  1  0
  6  7  1  0
  7  8  1  0
  8  9  1  0
  9 10  1  0
 10 11  2  0
 10 12  1  0
  9  7  1  0
  1 13  1  0
  1 14  1  0
  1 15  1  0
  2 16  1  0
  6 17  1  0
  7 18  1  1
  8 19  1  0
  8 20  1  0
  9 21  1  1
 12 22  1  0
M  END
$$$$

     RDKit          3D

 22 22  0  0  0  0  0  0  0  0999 V2000
    3.0695   -0.1113    0.4063 C   0  0  0  0  0  0  0  0  0  0  0  0
    2.4539    1.1231    0.8592 N   0  0  0  0  0  0  0  0  0  0  0  0
    1.1457    1.4989   -0.1765 S   0  0  0  0  0  6  0  0  0  0  0  0
    1.4563    0.9005   -1.5370 O   0  0  0  0  0  0  0  0  0  0  0  0
    0.9745    2.9970   -0.3568 O   0  0  0  0  0  0  0  0  0  0  0  0
   -0.3411    0.8227    0.3418 N   0  0  0  0  0  0  0  0  0  0  0  0
   -0.5058   -0.4751   -0.2341 C   0  0  1  0  0  0  0  0  0  0  0  0
   -1.0611   -1.6026    0.6011 C   0  0  0  0  0  0  0  0  0  0  0  0
   -1.8364   -1.0103   -0.6008 C   0  0  1  0  0  0  0  0  0  0  0  0
   -3.0788   -0.3555   -0.1966 C   0  0  0  0  0  0  0  0  0  0  0  0
   -4.1293   -0.5571   -0.8545 O   0  0  0  0  0  0  0  0  0  0  0  0
   -3.1891    0.4995    0.8940 O   0  0  0  0  0  0  0  0  0  0  0  0
    3.5323    0.0196   -0.6156 H   0  0  0  0  0  0  0  0  0  0  0  0
    2.3598   -0.9616    0.4009 H   0  0  0  0  0  0  0  0  0  0  0  0
    3.9257   -0.3743    1.0676 H   0  0  0  0  0  0  0  0  0  0  0  0
    3.2045    1.8617    0.7753 H   0  0  0  0  0  0  0  0  0  0  0  0
   -0.5090    0.8808    1.3526 H   0  0  0  0  0  0  0  0  0  0  0  0
    0.3279   -0.8050   -0.8920 H   0  0  0  0  0  0  0  0  0  0  0  0
   -1.3900   -1.3539    1.6119 H   0  0  0  0  0  0  0  0  0  0  0  0
   -0.6929   -2.6369    0.4449 H   0  0  0  0  0  0  0  0  0  0  0  0
   -1.9090   -1.6673   -1.4976 H   0  0  0  0  0  0  0  0  0  0  0  0
   -3.8076    1.3072    0.8844 H   0  0  0  0  0  0  0  0  0  0  0  0
  1  2  1  0
  2  3  1  0
  3  4  2  0
  3  5  2  0
  3  6  1  0
  6  7  1  0
  7  8  1  0
  8  9  1  0
  9 10  1  0
 10 11  2  0
 10 12  1  0
  9  7  1  0
  1 13  1  0
  1 14  1  0
  1 15  1  0
  2 16  1  0
  6 17  1  0
  7 18  1  6
  8 19  1  0
  8 20  1  0
  9 21  1  6
 12 22  1  0
M  END
$$$$
