
     RDKit          3D

 25 26  0  0  0  0  0  0  0  0999 V2000
   -2.3616    1.0520    0.2363 C   0  0  0  0  0  0  0  0  0  0  0  0
   -3.0565   -0.2791    0.2879 C   0  0  0  0  0  0  0  0  0  0  0  0
   -2.1967   -1.3479    0.4597 O   0  0  0  0  0  0  0  0  0  0  0  0
   -1.1746   -1.2871   -0.4948 C   0  0  0  0  0  0  0  0  0  0  0  0
   -0.4027   -0.0166   -0.4345 C   0  0  2  0  0  0  0  0  0  0  0  0
    1.0652   -0.2099   -0.1960 C   0  0  2  0  0  0  0  0  0  0  0  0
    1.3684   -0.7125    1.1271 N   0  0  0  0  0  0  0  0  0  0  0  0
    2.8353   -0.5947    1.0868 C   0  0  0  0  0  0  0  0  0  0  0  0
    2.9495    0.8002    0.4571 C   0  0  0  0  0  0  0  0  0  0  0  0
    1.7342    1.0118   -0.1928 O   0  0  0  0  0  0  0  0  0  0  0  0
   -0.9618    0.8137    0.6116 N   0  0  0  0  0  0  0  0  0  0  0  0
   -2.3975    1.4966   -0.7978 H   0  0  0  0  0  0  0  0  0  0  0  0
   -2.7878    1.8024    0.9242 H   0  0  0  0  0  0  0  0  0  0  0  0
   -3.6547   -0.4772   -0.6245 H   0  0  0  0  0  0  0  0  0  0  0  0
   -3.7752   -0.2949    1.1459 H   0  0  0  0  0  0  0  0  0  0  0  0
   -1.6845   -1.4173   -1.4877 H   0  0  0  0  0  0  0  0  0  0  0  0
   -0.5491   -2.1909   -0.3517 H   0  0  0  0  0  0  0  0  0  0  0  0
   -0.5040    0.5221   -1.4070 H   0  0  0  0  0  0  0  0  0  0  0  0
    1.5547   -0.8545   -0.9237 H   0  0  0  0  0  0  0  0  0  0  0  0
    1.0732    0.0054    1.8563 H   0  0  0  0  0  0  0  0  0  0  0  0
    3.2808   -0.6371    2.0775 H   0  0  0  0  0  0  0  0  0  0  0  0
    3.2834   -1.3474    0.4216 H   0  0  0  0  0  0  0  0  0  0  0  0
    3.7992    0.8599   -0.2297 H   0  0  0  0  0  0  0  0  0  0  0  0
    3.0287    1.5763    1.2708 H   0  0  0  0  0  0  0  0  0  0  0  0
   -0.4656    1.7265    0.7053 H   0  0  0  0  0  0  0  0  0  0  0  0
  1  2  1  0
  2  3  1  0
  3  4  1  0
  4  5  1  0
  5  6  1  0
  6  7  1  0
  7  8  1  0
  8  9  1  0
  9 10  1  0
  5 11  1  0
 11  1  1  0
 10  6  1  0
  1 12  1  0
  1 13  1  0
  2 14  1  0
  2 15  1  0
  4 16  1  0
  4 17  1  0
  5 18  1  6
  6 19  1  6
  7 20  1  0
  8 21  1  0
  8 22  1  0
  9 23  1  0
  9 24  1  0
 11 25  1  0
M  END
$$$$

     RDKit          3D

 25 26  0  0  0  0  0  0  0  0999 V2000
    2.0624    0.9150    0.6208 C   0  0  0  0  0  0  0  0  0  0  0  0
    3.0746    0.1148   -0.2065 C   0  0  0  0  0  0  0  0  0  0  0  0
    2.4460   -0.4695   -1.2510 O   0  0  0  0  0  0  0  0  0  0  0  0
    1.2627   -1.0830   -1.0414 C   0  0  0  0  0  0  0  0  0  0  0  0
    0.4909   -0.7372    0.1666 C   0  0  2  0  0  0  0  0  0  0  0  0
   -0.7243    0.1372   -0.1343 C   0  0  2  0  0  0  0  0  0  0  0  0
   -1.5873    0.0798    1.0386 N   0  0  0  0  0  0  0  0  0  0  0  0
   -2.8268    0.6409    0.4844 C   0  0  0  0  0  0  0  0  0  0  0  0
   -2.8214   -0.0209   -0.8965 C   0  0  0  0  0  0  0  0  0  0  0  0
   -1.5006   -0.3822   -1.1389 O   0  0  0  0  0  0  0  0  0  0  0  0
    1.2181   -0.1031    1.2188 N   0  0  0  0  0  0  0  0  0  0  0  0
    1.5240    1.5496   -0.1068 H   0  0  0  0  0  0  0  0  0  0  0  0
    2.5663    1.5381    1.3815 H   0  0  0  0  0  0  0  0  0  0  0  0
    3.6093   -0.5971    0.4497 H   0  0  0  0  0  0  0  0  0  0  0  0
    3.8032    0.8728   -0.5870 H   0  0  0  0  0  0  0  0  0  0  0  0
    0.6096   -0.8652   -1.9397 H   0  0  0  0  0  0  0  0  0  0  0  0
    1.4304   -2.1989   -1.1113 H   0  0  0  0  0  0  0  0  0  0  0  0
    0.0551   -1.6862    0.5996 H   0  0  0  0  0  0  0  0  0  0  0  0
   -0.4640    1.1687   -0.3586 H   0  0  0  0  0  0  0  0  0  0  0  0
   -1.7865   -0.9331    1.2211 H   0  0  0  0  0  0  0  0  0  0  0  0
   -2.6667    1.7345    0.3972 H   0  0  0  0  0  0  0  0  0  0  0  0
   -3.7010    0.3572    1.0760 H   0  0  0  0  0  0  0  0  0  0  0  0
   -3.2313    0.6622   -1.6722 H   0  0  0  0  0  0  0  0  0  0  0  0
   -3.4113   -0.9671   -0.8150 H   0  0  0  0  0  0  0  0  0  0  0  0
    0.5685    0.2725    1.9235 H   0  0  0  0  0  0  0  0  0  0  0  0
  1  2  1  0
  2  3  1  0
  3  4  1  0
  4  5  1  0
  5  6  1  0
  6  7  1  0
  7  8  1  0
  8  9  1  0
  9 10  1  0
  5 11  1  0
 11  1  1  0
 10  6  1  0
  1 12  1  0
  1 13  1  0
  2 14  1  0
  2 15  1  0
  4 16  1  0
  4 17  1  0
  5 18  1  1
  6 19  1  6
  7 20  1  0
  8 21  1  0
  8 22  1  0
  9 23  1  0
  9 24  1  0
 11 25  1  0
M  END
$$$$

     RDKit          3D

 25 26  0  0  0  0  0  0  0  0999 V2000
    2.3697   -0.6675    0.3508 C   0  0  0  0  0  0  0  0  0  0  0  0
    2.8688    0.4386   -0.5155 C   0  0  0  0  0  0  0  0  0  0  0  0
    1.9129    0.9329   -1.3818 O   0  0  0  0  0  0  0  0  0  0  0  0
    0.6276    0.8369   -0.8534 C   0  0  0  0  0  0  0  0  0  0  0  0
    0.2581   -0.6154   -0.8025 C   0  0  2  0  0  0  0  0  0  0  0  0
   -1.0945   -0.7873   -0.0971 C   0  0  2  0  0  0  0  0  0  0  0  0
   -2.0993    0.0309   -0.7317 N   0  0  0  0  0  0  0  0  0  0  0  0
   -2.8820    0.6007    0.3659 C   0  0  0  0  0  0  0  0  0  0  0  0
   -1.8461    0.6271    1.4694 C   0  0  0  0  0  0  0  0  0  0  0  0
   -0.9589   -0.3839    1.2034 O   0  0  0  0  0  0  0  0  0  0  0  0
    1.2634   -1.3964   -0.1726 N   0  0  0  0  0  0  0  0  0  0  0  0
    2.1515   -0.3348    1.3986 H   0  0  0  0  0  0  0  0  0  0  0  0
    3.2204   -1.4017    0.4661 H   0  0  0  0  0  0  0  0  0  0  0  0
    3.2233    1.2916    0.1298 H   0  0  0  0  0  0  0  0  0  0  0  0
    3.7336    0.1067   -1.1601 H   0  0  0  0  0  0  0  0  0  0  0  0
   -0.0619    1.3315   -1.5670 H   0  0  0  0  0  0  0  0  0  0  0  0
    0.5751    1.2996    0.1558 H   0  0  0  0  0  0  0  0  0  0  0  0
    0.0830   -0.9628   -1.8527 H   0  0  0  0  0  0  0  0  0  0  0  0
   -1.4292   -1.8395   -0.1612 H   0  0  0  0  0  0  0  0  0  0  0  0
   -2.7508   -0.4841   -1.3352 H   0  0  0  0  0  0  0  0  0  0  0  0
   -3.7397   -0.0775    0.6267 H   0  0  0  0  0  0  0  0  0  0  0  0
   -3.2427    1.6084    0.1002 H   0  0  0  0  0  0  0  0  0  0  0  0
   -1.3930    1.6376    1.4874 H   0  0  0  0  0  0  0  0  0  0  0  0
   -2.3122    0.4804    2.4642 H   0  0  0  0  0  0  0  0  0  0  0  0
    1.5229   -2.2721   -0.6367 H   0  0  0  0  0  0  0  0  0  0  0  0
  1  2  1  0
  2  3  1  0
  3  4  1  0
  4  5  1  0
  5  6  1  0
  6  7  1  0
  7  8  1  0
  8  9  1  0
  9 10  1  0
  5 11  1  0
 11  1  1  0
 10  6  1  0
  1 12  1  0
  1 13  1  0
  2 14  1  0
  2 15  1  0
  4 16  1  0
  4 17  1  0
  5 18  1  6
  6 19  1  1
  7 20  1  0
  8 21  1  0
  8 22  1  0
  9 23  1  0
  9 24  1  0
 11 25  1  0
M  END
$$$$

     RDKit          3D

 25 26  0  0  0  0  0  0  0  0999 V2000
    2.6891   -0.8096   -0.3873 C   0  0  0  0  0  0  0  0  0  0  0  0
    2.7270    0.6906   -0.1045 C   0  0  0  0  0  0  0  0  0  0  0  0
    1.8945    1.2936   -1.0463 O   0  0  0  0  0  0  0  0  0  0  0  0
    0.5773    0.9599   -0.7309 C   0  0  0  0  0  0  0  0  0  0  0  0
    0.3432   -0.5346   -0.8067 C   0  0  2  0  0  0  0  0  0  0  0  0
   -0.9857   -0.8297   -0.1230 C   0  0  2  0  0  0  0  0  0  0  0  0
   -2.0928   -0.1997   -0.7582 N   0  0  0  0  0  0  0  0  0  0  0  0
   -2.8770    0.4321    0.2809 C   0  0  0  0  0  0  0  0  0  0  0  0
   -1.9756    0.3812    1.4765 C   0  0  0  0  0  0  0  0  0  0  0  0
   -0.8922   -0.3948    1.1731 O   0  0  0  0  0  0  0  0  0  0  0  0
    1.3539   -1.2670   -0.0600 N   0  0  0  0  0  0  0  0  0  0  0  0
    2.8484   -0.9413   -1.4745 H   0  0  0  0  0  0  0  0  0  0  0  0
    3.4112   -1.3407    0.2324 H   0  0  0  0  0  0  0  0  0  0  0  0
    3.7697    1.0287   -0.2483 H   0  0  0  0  0  0  0  0  0  0  0  0
    2.3472    0.8568    0.9246 H   0  0  0  0  0  0  0  0  0  0  0  0
    0.3894    1.3035    0.3008 H   0  0  0  0  0  0  0  0  0  0  0  0
   -0.1295    1.4456   -1.4296 H   0  0  0  0  0  0  0  0  0  0  0  0
    0.3403   -0.8188   -1.8690 H   0  0  0  0  0  0  0  0  0  0  0  0
   -1.1375   -1.9351   -0.1532 H   0  0  0  0  0  0  0  0  0  0  0  0
   -2.7113   -0.8687   -1.2886 H   0  0  0  0  0  0  0  0  0  0  0  0
   -3.8208   -0.0918    0.4580 H   0  0  0  0  0  0  0  0  0  0  0  0
   -3.0638    1.4918   -0.0007 H   0  0  0  0  0  0  0  0  0  0  0  0
   -1.6458    1.4036    1.7590 H   0  0  0  0  0  0  0  0  0  0  0  0
   -2.5231   -0.1257    2.3204 H   0  0  0  0  0  0  0  0  0  0  0  0
    1.1636   -1.1299    0.9630 H   0  0  0  0  0  0  0  0  0  0  0  0
  1  2  1  0
  2  3  1  0
  3  4  1  0
  4  5  1  0
  5  6  1  0
  6  7  1  0
  7  8  1  0
  8  9  1  0
  9 10  1  0
  5 11  1  0
 11  1  1  0
 10  6  1  0
  1 12  1  0
  1 13  1  0
  2 14  1  0
  2 15  1  0
  4 16  1  0
  4 17  1  0
  5 18  1  6
  6 19  1  1
  7 20  1  0
  8 21  1  0
  8 22  1  0
  9 23  1  0
  9 24  1  0
 11 25  1  0
M  END
$$$$

     RDKit          3D

 25 26  0  0  0  0  0  0  0  0999 V2000
    2.2226   -1.4010    0.4300 C   0  0  0  0  0  0  0  0  0  0  0  0
    3.1203   -0.1872    0.3485 C   0  0  0  0  0  0  0  0  0  0  0  0
    2.6327    0.7711   -0.5038 O   0  0  0  0  0  0  0  0  0  0  0  0
    1.3194    1.1366   -0.1609 C   0  0  0  0  0  0  0  0  0  0  0  0
    0.4739   -0.0857   -0.3207 C   0  0  2  0  0  0  0  0  0  0  0  0
   -0.9736    0.2432   -0.3849 C   0  0  2  0  0  0  0  0  0  0  0  0
   -1.5297    0.7794    0.8165 N   0  0  0  0  0  0  0  0  0  0  0  0
   -2.9399    0.8570    0.4276 C   0  0  0  0  0  0  0  0  0  0  0  0
   -3.0743   -0.4582   -0.3183 C   0  0  0  0  0  0  0  0  0  0  0  0
   -1.7714   -0.8465   -0.6480 O   0  0  0  0  0  0  0  0  0  0  0  0
    0.8355   -1.0377    0.6826 N   0  0  0  0  0  0  0  0  0  0  0  0
    2.6165   -2.1213    1.1462 H   0  0  0  0  0  0  0  0  0  0  0  0
    2.2388   -1.8709   -0.5912 H   0  0  0  0  0  0  0  0  0  0  0  0
    3.3174    0.2729    1.3309 H   0  0  0  0  0  0  0  0  0  0  0  0
    4.0908   -0.5524   -0.0898 H   0  0  0  0  0  0  0  0  0  0  0  0
    1.0013    1.9854   -0.7901 H   0  0  0  0  0  0  0  0  0  0  0  0
    1.3647    1.4805    0.9131 H   0  0  0  0  0  0  0  0  0  0  0  0
    0.7496   -0.5412   -1.3146 H   0  0  0  0  0  0  0  0  0  0  0  0
   -1.1179    0.9964   -1.1899 H   0  0  0  0  0  0  0  0  0  0  0  0
   -1.5123    0.0514    1.5928 H   0  0  0  0  0  0  0  0  0  0  0  0
   -3.6113    0.9367    1.2783 H   0  0  0  0  0  0  0  0  0  0  0  0
   -3.0147    1.6928   -0.2979 H   0  0  0  0  0  0  0  0  0  0  0  0
   -3.5261   -1.2234    0.3499 H   0  0  0  0  0  0  0  0  0  0  0  0
   -3.6931   -0.3013   -1.2277 H   0  0  0  0  0  0  0  0  0  0  0  0
    0.7807   -0.5767    1.6360 H   0  0  0  0  0  0  0  0  0  0  0  0
  1  2  1  0
  2  3  1  0
  3  4  1  0
  4  5  1  0
  5  6  1  0
  6  7  1  0
  7  8  1  0
  8  9  1  0
  9 10  1  0
  5 11  1  0
 11  1  1  0
 10  6  1  0
  1 12  1  0
  1 13  1  0
  2 14  1  0
  2 15  1  0
  4 16  1  0
  4 17  1  0
  5 18  1  6
  6 19  1  6
  7 20  1  0
  8 21  1  0
  8 22  1  0
  9 23  1  0
  9 24  1  0
 11 25  1  0
M  END
$$$$

     RDKit          3D

 25 26  0  0  0  0  0  0  0  0999 V2000
    2.3759    1.2347   -0.0894 C   0  0  0  0  0  0  0  0  0  0  0  0
    3.1910   -0.0402   -0.2167 C   0  0  0  0  0  0  0  0  0  0  0  0
    2.6036   -1.1132    0.3933 O   0  0  0  0  0  0  0  0  0  0  0  0
    1.2914   -1.3358    0.0488 C   0  0  0  0  0  0  0  0  0  0  0  0
    0.4979   -0.0894    0.1938 C   0  0  2  0  0  0  0  0  0  0  0  0
   -0.9459   -0.2204   -0.1471 C   0  0  2  0  0  0  0  0  0  0  0  0
   -1.7108    0.9745    0.1614 N   0  0  0  0  0  0  0  0  0  0  0  0
   -3.0505    0.5040   -0.1479 C   0  0  0  0  0  0  0  0  0  0  0  0
   -2.9444   -0.9734    0.1526 C   0  0  0  0  0  0  0  0  0  0  0  0
   -1.6195   -1.1756    0.5998 O   0  0  0  0  0  0  0  0  0  0  0  0
    1.0712    0.9365   -0.6589 N   0  0  0  0  0  0  0  0  0  0  0  0
    2.8905    2.0279   -0.6626 H   0  0  0  0  0  0  0  0  0  0  0  0
    2.2024    1.5121    0.9684 H   0  0  0  0  0  0  0  0  0  0  0  0
    4.1590    0.1585    0.3080 H   0  0  0  0  0  0  0  0  0  0  0  0
    3.4115   -0.1712   -1.2884 H   0  0  0  0  0  0  0  0  0  0  0  0
    1.1661   -1.7964   -0.9529 H   0  0  0  0  0  0  0  0  0  0  0  0
    0.8821   -2.0857    0.7787 H   0  0  0  0  0  0  0  0  0  0  0  0
    0.5851    0.2583    1.2492 H   0  0  0  0  0  0  0  0  0  0  0  0
   -1.1100   -0.4404   -1.2216 H   0  0  0  0  0  0  0  0  0  0  0  0
   -1.6952    1.1455    1.1929 H   0  0  0  0  0  0  0  0  0  0  0  0
   -3.2022    0.7046   -1.2383 H   0  0  0  0  0  0  0  0  0  0  0  0
   -3.8216    0.9975    0.4759 H   0  0  0  0  0  0  0  0  0  0  0  0
   -3.0082   -1.5057   -0.8165 H   0  0  0  0  0  0  0  0  0  0  0  0
   -3.6880   -1.2722    0.8907 H   0  0  0  0  0  0  0  0  0  0  0  0
    0.4686    1.7655   -0.6919 H   0  0  0  0  0  0  0  0  0  0  0  0
  1  2  1  0
  2  3  1  0
  3  4  1  0
  4  5  1  0
  5  6  1  0
  6  7  1  0
  7  8  1  0
  8  9  1  0
  9 10  1  0
  5 11  1  0
 11  1  1  0
 10  6  1  0
  1 12  1  0
  1 13  1  0
  2 14  1  0
  2 15  1  0
  4 16  1  0
  4 17  1  0
  5 18  1  1
  6 19  1  6
  7 20  1  0
  8 21  1  0
  8 22  1  0
  9 23  1  0
  9 24  1  0
 11 25  1  0
M  END
$$$$

     RDKit          3D

 25 26  0  0  0  0  0  0  0  0999 V2000
    2.4191    1.0686   -0.5607 C   0  0  0  0  0  0  0  0  0  0  0  0
    2.8683   -0.2523   -1.1419 C   0  0  0  0  0  0  0  0  0  0  0  0
    2.4334   -1.3079   -0.4274 O   0  0  0  0  0  0  0  0  0  0  0  0
    1.2627   -1.2447    0.2232 C   0  0  0  0  0  0  0  0  0  0  0  0
    0.5701    0.0469    0.3407 C   0  0  2  0  0  0  0  0  0  0  0  0
   -0.9308   -0.0625    0.3935 C   0  0  2  0  0  0  0  0  0  0  0  0
   -1.5290   -0.4261   -0.8536 N   0  0  0  0  0  0  0  0  0  0  0  0
   -2.9438   -0.1175   -0.5884 C   0  0  0  0  0  0  0  0  0  0  0  0
   -2.8700    0.9035    0.5250 C   0  0  0  0  0  0  0  0  0  0  0  0
   -1.5084    1.1440    0.7013 O   0  0  0  0  0  0  0  0  0  0  0  0
    0.9513    1.0224   -0.6848 N   0  0  0  0  0  0  0  0  0  0  0  0
    2.6941    1.0382    0.5296 H   0  0  0  0  0  0  0  0  0  0  0  0
    2.8528    1.9386   -1.0388 H   0  0  0  0  0  0  0  0  0  0  0  0
    2.5247   -0.2725   -2.1994 H   0  0  0  0  0  0  0  0  0  0  0  0
    3.9920   -0.2610   -1.1671 H   0  0  0  0  0  0  0  0  0  0  0  0
    1.4136   -1.6578    1.2653 H   0  0  0  0  0  0  0  0  0  0  0  0
    0.5490   -1.9848   -0.2460 H   0  0  0  0  0  0  0  0  0  0  0  0
    0.8764    0.5344    1.3046 H   0  0  0  0  0  0  0  0  0  0  0  0
   -1.2109   -0.8163    1.1469 H   0  0  0  0  0  0  0  0  0  0  0  0
   -1.4768   -1.4671   -0.9867 H   0  0  0  0  0  0  0  0  0  0  0  0
   -3.4678   -1.0203   -0.2136 H   0  0  0  0  0  0  0  0  0  0  0  0
   -3.4654    0.2429   -1.4718 H   0  0  0  0  0  0  0  0  0  0  0  0
   -3.3897    1.8377    0.2085 H   0  0  0  0  0  0  0  0  0  0  0  0
   -3.3261    0.5229    1.4731 H   0  0  0  0  0  0  0  0  0  0  0  0
    0.7111    0.5907   -1.6028 H   0  0  0  0  0  0  0  0  0  0  0  0
  1  2  1  0
  2  3  1  0
  3  4  1  0
  4  5  1  0
  5  6  1  0
  6  7  1  0
  7  8  1  0
  8  9  1  0
  9 10  1  0
  5 11  1  0
 11  1  1  0
 10  6  1  0
  1 12  1  0
  1 13  1  0
  2 14  1  0
  2 15  1  0
  4 16  1  0
  4 17  1  0
  5 18  1  1
  6 19  1  1
  7 20  1  0
  8 21  1  0
  8 22  1  0
  9 23  1  0
  9 24  1  0
 11 25  1  0
M  END
$$$$

     RDKit          3D

 25 26  0  0  0  0  0  0  0  0999 V2000
    2.2861   -1.4862    0.0730 C   0  0  0  0  0  0  0  0  0  0  0  0
    3.0104   -0.1711    0.0331 C   0  0  0  0  0  0  0  0  0  0  0  0
    2.5682    0.5461   -1.0911 O   0  0  0  0  0  0  0  0  0  0  0  0
    1.2439    0.9024   -0.8639 C   0  0  0  0  0  0  0  0  0  0  0  0
    0.3345   -0.2449   -0.6207 C   0  0  2  0  0  0  0  0  0  0  0  0
   -0.8264    0.2481    0.2332 C   0  0  2  0  0  0  0  0  0  0  0  0
   -1.8617   -0.7315    0.3609 N   0  0  0  0  0  0  0  0  0  0  0  0
   -3.0448    0.0669    0.6095 C   0  0  0  0  0  0  0  0  0  0  0  0
   -2.5512    1.4992    0.5372 C   0  0  0  0  0  0  0  0  0  0  0  0
   -1.4405    1.3521   -0.3167 O   0  0  0  0  0  0  0  0  0  0  0  0
    0.9003   -1.3581   -0.0001 N   0  0  0  0  0  0  0  0  0  0  0  0
    2.5589   -1.9682    1.0577 H   0  0  0  0  0  0  0  0  0  0  0  0
    2.6440   -2.1572   -0.7548 H   0  0  0  0  0  0  0  0  0  0  0  0
    2.8240    0.3616    0.9705 H   0  0  0  0  0  0  0  0  0  0  0  0
    4.1084   -0.3430   -0.1416 H   0  0  0  0  0  0  0  0  0  0  0  0
    1.1976    1.6423   -0.0193 H   0  0  0  0  0  0  0  0  0  0  0  0
    0.9106    1.4424   -1.7942 H   0  0  0  0  0  0  0  0  0  0  0  0
   -0.1265   -0.5601   -1.5993 H   0  0  0  0  0  0  0  0  0  0  0  0
   -0.4606    0.5489    1.2488 H   0  0  0  0  0  0  0  0  0  0  0  0
   -1.9255   -1.2467   -0.5523 H   0  0  0  0  0  0  0  0  0  0  0  0
   -3.4469   -0.1900    1.5981 H   0  0  0  0  0  0  0  0  0  0  0  0
   -3.7654   -0.1445   -0.2050 H   0  0  0  0  0  0  0  0  0  0  0  0
   -3.2937    2.1962    0.1402 H   0  0  0  0  0  0  0  0  0  0  0  0
   -2.1527    1.7589    1.5298 H   0  0  0  0  0  0  0  0  0  0  0  0
    0.3091   -1.9635    0.5650 H   0  0  0  0  0  0  0  0  0  0  0  0
  1  2  1  0
  2  3  1  0
  3  4  1  0
  4  5  1  0
  5  6  1  0
  6  7  1  0
  7  8  1  0
  8  9  1  0
  9 10  1  0
  5 11  1  0
 11  1  1  0
 10  6  1  0
  1 12  1  0
  1 13  1  0
  2 14  1  0
  2 15  1  0
  4 16  1  0
  4 17  1  0
  5 18  1  6
  6 19  1  1
  7 20  1  0
  8 21  1  0
  8 22  1  0
  9 23  1  0
  9 24  1  0
 11 25  1  0
M  END
$$$$
