
     RDKit          3D

 29 28  0  0  0  0  0  0  0  0999 V2000
    4.1652    0.5747    0.2208 N   0  0  0  0  0  0  0  0  0  0  0  0
    3.4840   -0.2419   -0.7443 C   0  0  0  0  0  0  0  0  0  0  0  0
    2.2932    0.4467   -1.3478 C   0  0  0  0  0  0  0  0  0  0  0  0
    1.2488    0.8382   -0.3489 C   0  0  0  0  0  0  0  0  0  0  0  0
    0.7219   -0.3832    0.3756 C   0  0  0  0  0  0  0  0  0  0  0  0
   -0.5231    0.2191    1.5447 S   0  0  0  0  0  4  0  0  0  0  0  0
   -1.0420   -0.8651    2.4407 O   0  0  0  0  0  0  0  0  0  0  0  0
   -1.8364    1.0531    0.6395 C   0  0  0  0  0  0  0  0  0  0  0  0
   -2.5022    0.1259   -0.3335 C   0  0  2  0  0  0  0  0  0  0  0  0
   -3.4995    0.8504   -0.9863 O   0  0  0  0  0  0  0  0  0  0  0  0
   -3.1795   -1.0350    0.3545 C   0  0  0  0  0  0  0  0  0  0  0  0
   -4.1092   -0.5277    1.2610 O   0  0  0  0  0  0  0  0  0  0  0  0
    4.2041    0.1374    1.1718 H   0  0  0  0  0  0  0  0  0  0  0  0
    5.1031    0.9000   -0.1041 H   0  0  0  0  0  0  0  0  0  0  0  0
    4.1511   -0.5342   -1.5818 H   0  0  0  0  0  0  0  0  0  0  0  0
    3.1466   -1.1790   -0.2695 H   0  0  0  0  0  0  0  0  0  0  0  0
    2.5868    1.3522   -1.9291 H   0  0  0  0  0  0  0  0  0  0  0  0
    1.8226   -0.2388   -2.0797 H   0  0  0  0  0  0  0  0  0  0  0  0
    1.6101    1.5800    0.3930 H   0  0  0  0  0  0  0  0  0  0  0  0
    0.4139    1.3050   -0.9046 H   0  0  0  0  0  0  0  0  0  0  0  0
    1.5484   -0.8543    0.9541 H   0  0  0  0  0  0  0  0  0  0  0  0
    0.2744   -1.0743   -0.3553 H   0  0  0  0  0  0  0  0  0  0  0  0
   -1.4196    1.9077    0.0720 H   0  0  0  0  0  0  0  0  0  0  0  0
   -2.5949    1.4031    1.3640 H   0  0  0  0  0  0  0  0  0  0  0  0
   -1.7903   -0.2431   -1.0966 H   0  0  0  0  0  0  0  0  0  0  0  0
   -4.2049    0.2239   -1.2813 H   0  0  0  0  0  0  0  0  0  0  0  0
   -2.4872   -1.7389    0.8256 H   0  0  0  0  0  0  0  0  0  0  0  0
   -3.7941   -1.5445   -0.4445 H   0  0  0  0  0  0  0  0  0  0  0  0
   -3.7914   -0.6418    2.1900 H   0  0  0  0  0  0  0  0  0  0  0  0
  1  2  1  0
  2  3  1  0
  3  4  1  0
  4  5  1  0
  6  5  1  6
  6  7  2  0
  6  8  1  0
  8  9  1  0
  9 10  1  0
  9 11  1  0
 11 12  1  0
  1 13  1  0
  1 14  1  0
  2 15  1  0
  2 16  1  0
  3 17  1  0
  3 18  1  0
  4 19  1  0
  4 20  1  0
  5 21  1  0
  5 22  1  0
  8 23  1  0
  8 24  1  0
  9 25  1  6
 10 26  1  0
 11 27  1  0
 11 28  1  0
 12 29  1  0
M  END
$$$$

     RDKit          3D

 29 28  0  0  0  0  0  0  0  0999 V2000
   -4.2107   -0.5041   -0.5263 N   0  0  0  0  0  0  0  0  0  0  0  0
   -3.1370   -0.6086    0.4503 C   0  0  0  0  0  0  0  0  0  0  0  0
   -2.2931    0.6439    0.4138 C   0  0  0  0  0  0  0  0  0  0  0  0
   -1.7002    0.8219   -0.9578 C   0  0  0  0  0  0  0  0  0  0  0  0
   -0.8232   -0.3662   -1.3228 C   0  0  0  0  0  0  0  0  0  0  0  0
    0.5218   -0.5792   -0.1811 S   0  0  0  0  0  4  0  0  0  0  0  0
    0.0672   -1.0745    1.1612 O   0  0  0  0  0  0  0  0  0  0  0  0
    1.6149    0.8219   -0.0912 C   0  0  0  0  0  0  0  0  0  0  0  0
    2.7041    0.5007    0.9126 C   0  0  2  0  0  0  0  0  0  0  0  0
    3.6056    1.5491    1.0439 O   0  0  0  0  0  0  0  0  0  0  0  0
    3.4018   -0.7597    0.4393 C   0  0  0  0  0  0  0  0  0  0  0  0
    4.3717   -1.1278    1.3479 O   0  0  0  0  0  0  0  0  0  0  0  0
   -4.9279    0.1793   -0.1570 H   0  0  0  0  0  0  0  0  0  0  0  0
   -4.6252   -1.4297   -0.7632 H   0  0  0  0  0  0  0  0  0  0  0  0
   -3.6046   -0.6218    1.4750 H   0  0  0  0  0  0  0  0  0  0  0  0
   -2.5749   -1.5276    0.2877 H   0  0  0  0  0  0  0  0  0  0  0  0
   -1.5261    0.6284    1.2064 H   0  0  0  0  0  0  0  0  0  0  0  0
   -3.0053    1.4952    0.5847 H   0  0  0  0  0  0  0  0  0  0  0  0
   -2.5122    0.9418   -1.6885 H   0  0  0  0  0  0  0  0  0  0  0  0
   -1.0499    1.7186   -0.9261 H   0  0  0  0  0  0  0  0  0  0  0  0
   -1.3977   -1.3134   -1.3549 H   0  0  0  0  0  0  0  0  0  0  0  0
   -0.3626   -0.2102   -2.3390 H   0  0  0  0  0  0  0  0  0  0  0  0
    2.0838    0.9700   -1.0903 H   0  0  0  0  0  0  0  0  0  0  0  0
    1.0743    1.7353    0.2597 H   0  0  0  0  0  0  0  0  0  0  0  0
    2.2236    0.2554    1.8830 H   0  0  0  0  0  0  0  0  0  0  0  0
    4.3193    1.4420    0.3627 H   0  0  0  0  0  0  0  0  0  0  0  0
    2.6620   -1.5566    0.3073 H   0  0  0  0  0  0  0  0  0  0  0  0
    3.9313   -0.5256   -0.5223 H   0  0  0  0  0  0  0  0  0  0  0  0
    5.1693   -1.4983    0.8736 H   0  0  0  0  0  0  0  0  0  0  0  0
  1  2  1  0
  2  3  1  0
  3  4  1  0
  4  5  1  0
  6  5  1  6
  6  7  2  0
  6  8  1  0
  8  9  1  0
  9 10  1  0
  9 11  1  0
 11 12  1  0
  1 13  1  0
  1 14  1  0
  2 15  1  0
  2 16  1  0
  3 17  1  0
  3 18  1  0
  4 19  1  0
  4 20  1  0
  5 21  1  0
  5 22  1  0
  8 23  1  0
  8 24  1  0
  9 25  1  1
 10 26  1  0
 11 27  1  0
 11 28  1  0
 12 29  1  0
M  END
$$$$

     RDKit          3D

 29 28  0  0  0  0  0  0  0  0999 V2000
   -3.6597    1.3381    1.1415 N   0  0  0  0  0  0  0  0  0  0  0  0
   -3.6864    1.0179   -0.2703 C   0  0  0  0  0  0  0  0  0  0  0  0
   -3.5486   -0.4673   -0.4889 C   0  0  0  0  0  0  0  0  0  0  0  0
   -2.2374   -0.9587    0.0879 C   0  0  0  0  0  0  0  0  0  0  0  0
   -1.0852   -0.2598   -0.5809 C   0  0  0  0  0  0  0  0  0  0  0  0
    0.4382   -0.8911    0.1519 S   0  0  0  0  0  4  0  0  0  0  0  0
    0.4345   -0.4742    1.6177 O   0  0  0  0  0  0  0  0  0  0  0  0
    1.8119   -0.0565   -0.6470 C   0  0  0  0  0  0  0  0  0  0  0  0
    3.1109   -0.5731   -0.0447 C   0  0  2  0  0  0  0  0  0  0  0  0
    3.1041   -0.2987    1.3185 O   0  0  0  0  0  0  0  0  0  0  0  0
    4.2926    0.1281   -0.6983 C   0  0  0  0  0  0  0  0  0  0  0  0
    5.4385   -0.3787   -0.0778 O   0  0  0  0  0  0  0  0  0  0  0  0
   -4.2246    0.6141    1.6548 H   0  0  0  0  0  0  0  0  0  0  0  0
   -2.6559    1.2794    1.4884 H   0  0  0  0  0  0  0  0  0  0  0  0
   -2.9422    1.5702   -0.8464 H   0  0  0  0  0  0  0  0  0  0  0  0
   -4.7128    1.2990   -0.6382 H   0  0  0  0  0  0  0  0  0  0  0  0
   -3.4990   -0.6355   -1.5926 H   0  0  0  0  0  0  0  0  0  0  0  0
   -4.3705   -1.0088   -0.0131 H   0  0  0  0  0  0  0  0  0  0  0  0
   -2.2018   -0.7107    1.1638 H   0  0  0  0  0  0  0  0  0  0  0  0
   -2.1456   -2.0447   -0.1190 H   0  0  0  0  0  0  0  0  0  0  0  0
   -1.1019   -0.5191   -1.6587 H   0  0  0  0  0  0  0  0  0  0  0  0
   -1.0891    0.8224   -0.4326 H   0  0  0  0  0  0  0  0  0  0  0  0
    1.7635    1.0334   -0.4780 H   0  0  0  0  0  0  0  0  0  0  0  0
    1.7618   -0.2296   -1.7281 H   0  0  0  0  0  0  0  0  0  0  0  0
    3.1784   -1.6548   -0.2504 H   0  0  0  0  0  0  0  0  0  0  0  0
    3.1079    0.6861    1.4172 H   0  0  0  0  0  0  0  0  0  0  0  0
    4.1868    1.2190   -0.5684 H   0  0  0  0  0  0  0  0  0  0  0  0
    4.3729   -0.1295   -1.7644 H   0  0  0  0  0  0  0  0  0  0  0  0
    6.1587    0.2833    0.0022 H   0  0  0  0  0  0  0  0  0  0  0  0
  1  2  1  0
  2  3  1  0
  3  4  1  0
  4  5  1  0
  6  5  1  6
  6  7  2  0
  6  8  1  0
  8  9  1  0
  9 10  1  0
  9 11  1  0
 11 12  1  0
  1 13  1  0
  1 14  1  0
  2 15  1  0
  2 16  1  0
  3 17  1  0
  3 18  1  0
  4 19  1  0
  4 20  1  0
  5 21  1  0
  5 22  1  0
  8 23  1  0
  8 24  1  0
  9 25  1  1
 10 26  1  0
 11 27  1  0
 11 28  1  0
 12 29  1  0
M  END
$$$$

     RDKit          3D

 29 28  0  0  0  0  0  0  0  0999 V2000
    4.1905   -0.7081   -0.1197 N   0  0  0  0  0  0  0  0  0  0  0  0
    3.0839   -0.2649   -0.9581 C   0  0  0  0  0  0  0  0  0  0  0  0
    2.5398    1.0407   -0.4300 C   0  0  0  0  0  0  0  0  0  0  0  0
    2.0583    0.8646    0.9834 C   0  0  0  0  0  0  0  0  0  0  0  0
    0.9821   -0.1498    1.0301 C   0  0  0  0  0  0  0  0  0  0  0  0
   -0.4447    0.3154   -0.0033 S   0  0  0  0  0  4  0  0  0  0  0  0
   -1.0429    1.6229    0.5011 O   0  0  0  0  0  0  0  0  0  0  0  0
   -1.6117   -1.0120    0.1849 C   0  0  0  0  0  0  0  0  0  0  0  0
   -2.8820   -0.8913   -0.5642 C   0  0  2  0  0  0  0  0  0  0  0  0
   -2.7468   -0.8018   -1.9496 O   0  0  0  0  0  0  0  0  0  0  0  0
   -3.8628    0.0999    0.0050 C   0  0  0  0  0  0  0  0  0  0  0  0
   -3.5053    1.3926   -0.2754 O   0  0  0  0  0  0  0  0  0  0  0  0
    3.8199   -1.1656    0.7274 H   0  0  0  0  0  0  0  0  0  0  0  0
    4.7558    0.1243    0.0959 H   0  0  0  0  0  0  0  0  0  0  0  0
    3.5087   -0.1451   -1.9825 H   0  0  0  0  0  0  0  0  0  0  0  0
    2.2941   -1.0324   -0.9896 H   0  0  0  0  0  0  0  0  0  0  0  0
    1.7058    1.3755   -1.0881 H   0  0  0  0  0  0  0  0  0  0  0  0
    3.3677    1.7941   -0.4919 H   0  0  0  0  0  0  0  0  0  0  0  0
    1.7865    1.8147    1.4689 H   0  0  0  0  0  0  0  0  0  0  0  0
    2.9507    0.4910    1.5582 H   0  0  0  0  0  0  0  0  0  0  0  0
    1.2615   -1.1682    0.7206 H   0  0  0  0  0  0  0  0  0  0  0  0
    0.5371   -0.2089    2.0708 H   0  0  0  0  0  0  0  0  0  0  0  0
   -1.8560   -1.0979    1.2648 H   0  0  0  0  0  0  0  0  0  0  0  0
   -1.1086   -1.9776   -0.1100 H   0  0  0  0  0  0  0  0  0  0  0  0
   -3.3965   -1.9052   -0.4256 H   0  0  0  0  0  0  0  0  0  0  0  0
   -3.3221   -0.1131   -2.3470 H   0  0  0  0  0  0  0  0  0  0  0  0
   -3.8709   -0.0703    1.1073 H   0  0  0  0  0  0  0  0  0  0  0  0
   -4.8690   -0.1714   -0.4242 H   0  0  0  0  0  0  0  0  0  0  0  0
   -4.3233    1.9477   -0.3061 H   0  0  0  0  0  0  0  0  0  0  0  0
  1  2  1  0
  2  3  1  0
  3  4  1  0
  4  5  1  0
  6  5  1  1
  6  7  2  0
  6  8  1  0
  8  9  1  0
  9 10  1  0
  9 11  1  0
 11 12  1  0
  1 13  1  0
  1 14  1  0
  2 15  1  0
  2 16  1  0
  3 17  1  0
  3 18  1  0
  4 19  1  0
  4 20  1  0
  5 21  1  0
  5 22  1  0
  8 23  1  0
  8 24  1  0
  9 25  1  6
 10 26  1  0
 11 27  1  0
 11 28  1  0
 12 29  1  0
M  END
$$$$

     RDKit          3D

 29 28  0  0  0  0  0  0  0  0999 V2000
    4.2267    1.2358    0.5944 N   0  0  0  0  0  0  0  0  0  0  0  0
    4.1100   -0.1816    0.3853 C   0  0  0  0  0  0  0  0  0  0  0  0
    2.6846   -0.6721    0.5109 C   0  0  0  0  0  0  0  0  0  0  0  0
    1.7856    0.0187   -0.5245 C   0  0  0  0  0  0  0  0  0  0  0  0
    0.3930   -0.5637   -0.2865 C   0  0  0  0  0  0  0  0  0  0  0  0
   -0.8173    0.1097   -1.3946 S   0  0  0  0  0  4  0  0  0  0  0  0
   -0.8679    1.6170   -1.4284 O   0  0  0  0  0  0  0  0  0  0  0  0
   -2.3974   -0.6498   -1.0144 C   0  0  0  0  0  0  0  0  0  0  0  0
   -2.8229   -0.3808    0.3991 C   0  0  2  0  0  0  0  0  0  0  0  0
   -4.0684   -1.0024    0.6371 O   0  0  0  0  0  0  0  0  0  0  0  0
   -3.0095    1.0936    0.6889 C   0  0  0  0  0  0  0  0  0  0  0  0
   -3.9859    1.6246   -0.1486 O   0  0  0  0  0  0  0  0  0  0  0  0
    4.3861    1.6810   -0.3296 H   0  0  0  0  0  0  0  0  0  0  0  0
    3.4672    1.6411    1.1523 H   0  0  0  0  0  0  0  0  0  0  0  0
    4.7019   -0.7219    1.1427 H   0  0  0  0  0  0  0  0  0  0  0  0
    4.4992   -0.4996   -0.6045 H   0  0  0  0  0  0  0  0  0  0  0  0
    2.6819   -1.7630    0.3562 H   0  0  0  0  0  0  0  0  0  0  0  0
    2.2530   -0.4552    1.4892 H   0  0  0  0  0  0  0  0  0  0  0  0
    1.7858    1.1078   -0.3321 H   0  0  0  0  0  0  0  0  0  0  0  0
    2.1555   -0.1727   -1.5310 H   0  0  0  0  0  0  0  0  0  0  0  0
    0.4778   -1.6414   -0.4605 H   0  0  0  0  0  0  0  0  0  0  0  0
    0.1468   -0.3522    0.7694 H   0  0  0  0  0  0  0  0  0  0  0  0
   -3.1836   -0.3651   -1.7396 H   0  0  0  0  0  0  0  0  0  0  0  0
   -2.2559   -1.7461   -1.1080 H   0  0  0  0  0  0  0  0  0  0  0  0
   -2.0925   -0.8012    1.1046 H   0  0  0  0  0  0  0  0  0  0  0  0
   -4.2680   -1.6037   -0.1108 H   0  0  0  0  0  0  0  0  0  0  0  0
   -3.3844    1.1968    1.7308 H   0  0  0  0  0  0  0  0  0  0  0  0
   -2.0512    1.6024    0.5780 H   0  0  0  0  0  0  0  0  0  0  0  0
   -4.5501    0.9023   -0.5257 H   0  0  0  0  0  0  0  0  0  0  0  0
  1  2  1  0
  2  3  1  0
  3  4  1  0
  4  5  1  0
  6  5  1  1
  6  7  2  0
  6  8  1  0
  8  9  1  0
  9 10  1  0
  9 11  1  0
 11 12  1  0
  1 13  1  0
  1 14  1  0
  2 15  1  0
  2 16  1  0
  3 17  1  0
  3 18  1  0
  4 19  1  0
  4 20  1  0
  5 21  1  0
  5 22  1  0
  8 23  1  0
  8 24  1  0
  9 25  1  1
 10 26  1  0
 11 27  1  0
 11 28  1  0
 12 29  1  0
M  END
$$$$

     RDKit          3D

 29 28  0  0  0  0  0  0  0  0999 V2000
    4.5824    0.3219   -1.1721 N   0  0  0  0  0  0  0  0  0  0  0  0
    4.4122    0.0025    0.2315 C   0  0  0  0  0  0  0  0  0  0  0  0
    3.0916   -0.7058    0.4412 C   0  0  0  0  0  0  0  0  0  0  0  0
    1.9920    0.2272   -0.0193 C   0  0  0  0  0  0  0  0  0  0  0  0
    0.6681   -0.4709    0.1859 C   0  0  0  0  0  0  0  0  0  0  0  0
   -0.7044    0.5963   -0.3482 S   0  0  0  0  0  4  0  0  0  0  0  0
   -0.5148    1.0663   -1.7588 O   0  0  0  0  0  0  0  0  0  0  0  0
   -2.2046   -0.3083   -0.0685 C   0  0  0  0  0  0  0  0  0  0  0  0
   -3.4452    0.4449   -0.4632 C   0  0  2  0  0  0  0  0  0  0  0  0
   -3.5627    1.6319    0.2539 O   0  0  0  0  0  0  0  0  0  0  0  0
   -4.6374   -0.4358   -0.0920 C   0  0  0  0  0  0  0  0  0  0  0  0
   -4.6260   -0.6946    1.2714 O   0  0  0  0  0  0  0  0  0  0  0  0
    4.0556    1.1916   -1.3535 H   0  0  0  0  0  0  0  0  0  0  0  0
    5.5874    0.3995   -1.4022 H   0  0  0  0  0  0  0  0  0  0  0  0
    5.2258   -0.6971    0.5365 H   0  0  0  0  0  0  0  0  0  0  0  0
    4.4373    0.9393    0.8135 H   0  0  0  0  0  0  0  0  0  0  0  0
    3.0603   -1.6472   -0.1187 H   0  0  0  0  0  0  0  0  0  0  0  0
    2.9614   -0.8910    1.5279 H   0  0  0  0  0  0  0  0  0  0  0  0
    2.1575    0.4619   -1.0825 H   0  0  0  0  0  0  0  0  0  0  0  0
    2.0627    1.1476    0.5912 H   0  0  0  0  0  0  0  0  0  0  0  0
    0.6272   -1.3827   -0.4084 H   0  0  0  0  0  0  0  0  0  0  0  0
    0.5827   -0.6751    1.2728 H   0  0  0  0  0  0  0  0  0  0  0  0
   -2.1688   -1.2359   -0.6883 H   0  0  0  0  0  0  0  0  0  0  0  0
   -2.2671   -0.5648    0.9978 H   0  0  0  0  0  0  0  0  0  0  0  0
   -3.4894    0.6950   -1.5273 H   0  0  0  0  0  0  0  0  0  0  0  0
   -2.7133    1.9222    0.6630 H   0  0  0  0  0  0  0  0  0  0  0  0
   -5.5880    0.0161   -0.4069 H   0  0  0  0  0  0  0  0  0  0  0  0
   -4.5712   -1.4243   -0.6018 H   0  0  0  0  0  0  0  0  0  0  0  0
   -5.0115    0.0692    1.7746 H   0  0  0  0  0  0  0  0  0  0  0  0
  1  2  1  0
  2  3  1  0
  3  4  1  0
  4  5  1  0
  6  5  1  1
  6  7  2  0
  6  8  1  0
  8  9  1  0
  9 10  1  0
  9 11  1  0
 11 12  1  0
  1 13  1  0
  1 14  1  0
  2 15  1  0
  2 16  1  0
  3 17  1  0
  3 18  1  0
  4 19  1  0
  4 20  1  0
  5 21  1  0
  5 22  1  0
  8 23  1  0
  8 24  1  0
  9 25  1  6
 10 26  1  0
 11 27  1  0
 11 28  1  0
 12 29  1  0
M  END
$$$$

     RDKit          3D

 29 28  0  0  0  0  0  0  0  0999 V2000
    4.1323    0.5322    0.4326 N   0  0  0  0  0  0  0  0  0  0  0  0
    3.8360   -0.5155   -0.5187 C   0  0  0  0  0  0  0  0  0  0  0  0
    2.7839   -0.0519   -1.4958 C   0  0  0  0  0  0  0  0  0  0  0  0
    1.5005    0.3296   -0.8346 C   0  0  0  0  0  0  0  0  0  0  0  0
    0.9172   -0.8283   -0.0923 C   0  0  0  0  0  0  0  0  0  0  0  0
   -0.6614   -0.3443    0.7043 S   0  0  0  0  0  4  0  0  0  0  0  0
   -1.1342   -1.6066    1.4430 O   0  0  0  0  0  0  0  0  0  0  0  0
   -1.8071    0.1849   -0.5446 C   0  0  0  0  0  0  0  0  0  0  0  0
   -3.1390    0.6305   -0.0932 C   0  0  2  0  0  0  0  0  0  0  0  0
   -3.0456    1.7171    0.7825 O   0  0  0  0  0  0  0  0  0  0  0  0
   -4.0083   -0.4529    0.4568 C   0  0  0  0  0  0  0  0  0  0  0  0
   -3.5464   -0.8972    1.6796 O   0  0  0  0  0  0  0  0  0  0  0  0
    3.3361    0.6338    1.0834 H   0  0  0  0  0  0  0  0  0  0  0  0
    4.4242    1.4186   -0.0203 H   0  0  0  0  0  0  0  0  0  0  0  0
    3.5039   -1.4070    0.0309 H   0  0  0  0  0  0  0  0  0  0  0  0
    4.8057   -0.7290   -1.0377 H   0  0  0  0  0  0  0  0  0  0  0  0
    2.6032   -0.8951   -2.2227 H   0  0  0  0  0  0  0  0  0  0  0  0
    3.1519    0.8046   -2.0985 H   0  0  0  0  0  0  0  0  0  0  0  0
    0.7819    0.7440   -1.5777 H   0  0  0  0  0  0  0  0  0  0  0  0
    1.7373    1.1453   -0.1015 H   0  0  0  0  0  0  0  0  0  0  0  0
    0.7753   -1.6849   -0.7588 H   0  0  0  0  0  0  0  0  0  0  0  0
    1.6273   -1.1374    0.7094 H   0  0  0  0  0  0  0  0  0  0  0  0
   -1.3060    1.0181   -1.1046 H   0  0  0  0  0  0  0  0  0  0  0  0
   -1.9587   -0.6797   -1.2621 H   0  0  0  0  0  0  0  0  0  0  0  0
   -3.7056    1.0423   -1.0045 H   0  0  0  0  0  0  0  0  0  0  0  0
   -3.1682    2.5863    0.3160 H   0  0  0  0  0  0  0  0  0  0  0  0
   -4.0463   -1.3186   -0.2387 H   0  0  0  0  0  0  0  0  0  0  0  0
   -5.0736   -0.0831    0.5394 H   0  0  0  0  0  0  0  0  0  0  0  0
   -3.3162   -0.1559    2.2950 H   0  0  0  0  0  0  0  0  0  0  0  0
  1  2  1  0
  2  3  1  0
  3  4  1  0
  4  5  1  0
  6  5  1  6
  6  7  2  0
  6  8  1  0
  8  9  1  0
  9 10  1  0
  9 11  1  0
 11 12  1  0
  1 13  1  0
  1 14  1  0
  2 15  1  0
  2 16  1  0
  3 17  1  0
  3 18  1  0
  4 19  1  0
  4 20  1  0
  5 21  1  0
  5 22  1  0
  8 23  1  0
  8 24  1  0
  9 25  1  6
 10 26  1  0
 11 27  1  0
 11 28  1  0
 12 29  1  0
M  END
$$$$

     RDKit          3D

 29 28  0  0  0  0  0  0  0  0999 V2000
    4.0700   -0.2855   -0.7202 N   0  0  0  0  0  0  0  0  0  0  0  0
    3.4168    0.9793   -0.4878 C   0  0  0  0  0  0  0  0  0  0  0  0
    2.5415    0.9200    0.7454 C   0  0  0  0  0  0  0  0  0  0  0  0
    1.4732   -0.1376    0.5989 C   0  0  0  0  0  0  0  0  0  0  0  0
    0.5700    0.1336   -0.5861 C   0  0  0  0  0  0  0  0  0  0  0  0
   -0.6400   -1.1395   -0.6767 S   0  0  0  0  0  4  0  0  0  0  0  0
   -1.2028   -1.4502   -2.0162 O   0  0  0  0  0  0  0  0  0  0  0  0
   -1.6957   -1.3246    0.7083 C   0  0  0  0  0  0  0  0  0  0  0  0
   -2.5217   -0.1041    1.0365 C   0  0  2  0  0  0  0  0  0  0  0  0
   -3.3193   -0.3743    2.1562 O   0  0  0  0  0  0  0  0  0  0  0  0
   -3.4471    0.2039   -0.1102 C   0  0  0  0  0  0  0  0  0  0  0  0
   -2.7909    0.5003   -1.2901 O   0  0  0  0  0  0  0  0  0  0  0  0
    4.5646   -0.5755    0.1323 H   0  0  0  0  0  0  0  0  0  0  0  0
    3.3616   -0.9877   -1.0087 H   0  0  0  0  0  0  0  0  0  0  0  0
    2.8236    1.2905   -1.3468 H   0  0  0  0  0  0  0  0  0  0  0  0
    4.2430    1.7273   -0.2973 H   0  0  0  0  0  0  0  0  0  0  0  0
    3.1935    0.6983    1.6116 H   0  0  0  0  0  0  0  0  0  0  0  0
    2.0580    1.9058    0.9057 H   0  0  0  0  0  0  0  0  0  0  0  0
    1.9662   -1.1443    0.4713 H   0  0  0  0  0  0  0  0  0  0  0  0
    0.8748   -0.2010    1.5253 H   0  0  0  0  0  0  0  0  0  0  0  0
    1.2005    0.0848   -1.5203 H   0  0  0  0  0  0  0  0  0  0  0  0
    0.1585    1.1592   -0.5056 H   0  0  0  0  0  0  0  0  0  0  0  0
   -1.1990   -1.6618    1.6385 H   0  0  0  0  0  0  0  0  0  0  0  0
   -2.4438   -2.1373    0.4770 H   0  0  0  0  0  0  0  0  0  0  0  0
   -1.8886    0.7720    1.2235 H   0  0  0  0  0  0  0  0  0  0  0  0
   -3.7544    0.4602    2.4126 H   0  0  0  0  0  0  0  0  0  0  0  0
   -4.1256    1.0526    0.1104 H   0  0  0  0  0  0  0  0  0  0  0  0
   -4.1252   -0.6592   -0.3373 H   0  0  0  0  0  0  0  0  0  0  0  0
   -3.3617    0.2951   -2.0552 H   0  0  0  0  0  0  0  0  0  0  0  0
  1  2  1  0
  2  3  1  0
  3  4  1  0
  4  5  1  0
  6  5  1  6
  6  7  2  0
  6  8  1  0
  8  9  1  0
  9 10  1  0
  9 11  1  0
 11 12  1  0
  1 13  1  0
  1 14  1  0
  2 15  1  0
  2 16  1  0
  3 17  1  0
  3 18  1  0
  4 19  1  0
  4 20  1  0
  5 21  1  0
  5 22  1  0
  8 23  1  0
  8 24  1  0
  9 25  1  1
 10 26  1  0
 11 27  1  0
 11 28  1  0
 12 29  1  0
M  END
$$$$
