
     RDKit          3D

 26 26  0  0  0  0  0  0  0  0999 V2000
   -3.2400    0.4193   -1.0075 C   0  0  0  0  0  0  0  0  0  0  0  0
   -2.8348   -0.5540    0.0865 C   0  0  2  0  0  0  0  0  0  0  0  0
   -3.5155   -0.1135    1.2466 O   0  0  0  0  0  0  0  0  0  0  0  0
   -1.3879   -0.4798    0.3831 C   0  0  0  0  0  0  0  0  0  0  0  0
   -0.4030   -0.7758   -0.7074 C   0  0  0  0  0  0  0  0  0  0  0  0
    0.4438    0.2466   -0.0682 N   0  0  0  0  0  0  0  0  0  0  0  0
    1.7806    0.5173    0.1907 C   0  0  0  0  0  0  0  0  0  0  0  0
    2.1183    1.5563    0.7981 O   0  0  0  0  0  0  0  0  0  0  0  0
    2.8237   -0.4312   -0.2549 C   0  0  0  0  0  0  0  0  0  0  0  0
    4.1547    0.0265    0.1080 N   0  0  0  0  0  0  0  0  0  0  0  0
    5.0990   -0.8476   -0.3041 O   0  0  0  0  0  0  0  0  0  0  0  0
   -0.8055    0.9320    0.2138 C   0  0  0  0  0  0  0  0  0  0  0  0
   -2.5923    0.2293   -1.8756 H   0  0  0  0  0  0  0  0  0  0  0  0
   -4.2980    0.2557   -1.3212 H   0  0  0  0  0  0  0  0  0  0  0  0
   -3.1883    1.4657   -0.6692 H   0  0  0  0  0  0  0  0  0  0  0  0
   -3.1948   -1.5681   -0.1000 H   0  0  0  0  0  0  0  0  0  0  0  0
   -3.0965    0.7043    1.5997 H   0  0  0  0  0  0  0  0  0  0  0  0
   -1.0513   -0.9247    1.3325 H   0  0  0  0  0  0  0  0  0  0  0  0
    0.0477   -1.7801   -0.7125 H   0  0  0  0  0  0  0  0  0  0  0  0
   -0.6693   -0.4027   -1.7115 H   0  0  0  0  0  0  0  0  0  0  0  0
    2.8184   -0.5815   -1.3538 H   0  0  0  0  0  0  0  0  0  0  0  0
    2.6258   -1.3978    0.2639 H   0  0  0  0  0  0  0  0  0  0  0  0
    4.3526    0.9501   -0.3086 H   0  0  0  0  0  0  0  0  0  0  0  0
    5.9835   -0.4083   -0.2439 H   0  0  0  0  0  0  0  0  0  0  0  0
   -1.1511    1.4333   -0.7001 H   0  0  0  0  0  0  0  0  0  0  0  0
   -0.8198    1.5287    1.1396 H   0  0  0  0  0  0  0  0  0  0  0  0
  1  2  1  0
  2  3  1  0
  2  4  1  0
  4  5  1  0
  5  6  1  0
  6  7  1  0
  7  8  2  0
  7  9  1  0
  9 10  1  0
 10 11  1  0
  6 12  1  0
 12  4  1  0
  1 13  1  0
  1 14  1  0
  1 15  1  0
  2 16  1  6
  3 17  1  0
  4 18  1  0
  5 19  1  0
  5 20  1  0
  9 21  1  0
  9 22  1  0
 10 23  1  0
 11 24  1  0
 12 25  1  0
 12 26  1  0
M  END
$$$$

     RDKit          3D

 26 26  0  0  0  0  0  0  0  0999 V2000
   -3.4929    0.2260    0.8138 C   0  0  0  0  0  0  0  0  0  0  0  0
   -2.5749   -0.9422    0.5226 C   0  0  2  0  0  0  0  0  0  0  0  0
   -2.1565   -1.4430    1.7539 O   0  0  0  0  0  0  0  0  0  0  0  0
   -1.3808   -0.4669   -0.2718 C   0  0  0  0  0  0  0  0  0  0  0  0
   -0.3822   -1.5133   -0.6356 C   0  0  0  0  0  0  0  0  0  0  0  0
    0.6712   -0.5700   -0.2905 N   0  0  0  0  0  0  0  0  0  0  0  0
    1.9817   -0.2406   -0.6274 C   0  0  0  0  0  0  0  0  0  0  0  0
    2.5900   -0.8840   -1.5066 O   0  0  0  0  0  0  0  0  0  0  0  0
    2.6656    0.8716    0.0503 C   0  0  0  0  0  0  0  0  0  0  0  0
    4.0203    1.0543   -0.4411 N   0  0  0  0  0  0  0  0  0  0  0  0
    4.5868    2.0859    0.2205 O   0  0  0  0  0  0  0  0  0  0  0  0
   -0.2799   -0.0132    0.6762 C   0  0  0  0  0  0  0  0  0  0  0  0
   -4.4028    0.2063    0.1808 H   0  0  0  0  0  0  0  0  0  0  0  0
   -2.9141    1.1711    0.6349 H   0  0  0  0  0  0  0  0  0  0  0  0
   -3.8093    0.2438    1.8685 H   0  0  0  0  0  0  0  0  0  0  0  0
   -3.1198   -1.7500   -0.0273 H   0  0  0  0  0  0  0  0  0  0  0  0
   -2.1162   -0.6835    2.3872 H   0  0  0  0  0  0  0  0  0  0  0  0
   -1.5923    0.2254   -1.0873 H   0  0  0  0  0  0  0  0  0  0  0  0
   -0.3559   -2.4151    0.0179 H   0  0  0  0  0  0  0  0  0  0  0  0
   -0.3397   -1.7984   -1.7097 H   0  0  0  0  0  0  0  0  0  0  0  0
    2.7052    0.6670    1.1250 H   0  0  0  0  0  0  0  0  0  0  0  0
    2.1334    1.8377   -0.1448 H   0  0  0  0  0  0  0  0  0  0  0  0
    4.0494    1.1763   -1.4760 H   0  0  0  0  0  0  0  0  0  0  0  0
    3.9684    2.5128    0.8472 H   0  0  0  0  0  0  0  0  0  0  0  0
   -0.2149    1.0684    0.8081 H   0  0  0  0  0  0  0  0  0  0  0  0
   -0.2398   -0.6263    1.5923 H   0  0  0  0  0  0  0  0  0  0  0  0
  1  2  1  0
  2  3  1  0
  2  4  1  0
  4  5  1  0
  5  6  1  0
  6  7  1  0
  7  8  2  0
  7  9  1  0
  9 10  1  0
 10 11  1  0
  6 12  1  0
 12  4  1  0
  1 13  1  0
  1 14  1  0
  1 15  1  0
  2 16  1  6
  3 17  1  0
  4 18  1  0
  5 19  1  0
  5 20  1  0
  9 21  1  0
  9 22  1  0
 10 23  1  0
 11 24  1  0
 12 25  1  0
 12 26  1  0
M  END
$$$$

     RDKit          3D

 26 26  0  0  0  0  0  0  0  0999 V2000
   -3.4350    0.1174   -1.3542 C   0  0  0  0  0  0  0  0  0  0  0  0
   -2.7112   -0.5063   -0.2054 C   0  0  2  0  0  0  0  0  0  0  0  0
   -3.4638   -0.4311    0.9870 O   0  0  0  0  0  0  0  0  0  0  0  0
   -1.3927    0.1436    0.0713 C   0  0  0  0  0  0  0  0  0  0  0  0
   -0.6830   -0.5119    1.2424 C   0  0  0  0  0  0  0  0  0  0  0  0
    0.5388   -0.2551    0.5359 N   0  0  0  0  0  0  0  0  0  0  0  0
    1.8571    0.0577    0.8804 C   0  0  0  0  0  0  0  0  0  0  0  0
    2.2307    0.1820    2.0917 O   0  0  0  0  0  0  0  0  0  0  0  0
    2.8698    0.2553   -0.1832 C   0  0  0  0  0  0  0  0  0  0  0  0
    4.1653    0.5698    0.3810 N   0  0  0  0  0  0  0  0  0  0  0  0
    5.1071    0.7558   -0.5399 O   0  0  0  0  0  0  0  0  0  0  0  0
   -0.2043   -0.4640   -0.6743 C   0  0  0  0  0  0  0  0  0  0  0  0
   -4.5175    0.1757   -1.1524 H   0  0  0  0  0  0  0  0  0  0  0  0
   -3.1861   -0.4608   -2.2708 H   0  0  0  0  0  0  0  0  0  0  0  0
   -3.0721    1.1503   -1.5258 H   0  0  0  0  0  0  0  0  0  0  0  0
   -2.5705   -1.5834   -0.4154 H   0  0  0  0  0  0  0  0  0  0  0  0
   -3.6172    0.5292    1.2247 H   0  0  0  0  0  0  0  0  0  0  0  0
   -1.3533    1.2297    0.0293 H   0  0  0  0  0  0  0  0  0  0  0  0
   -0.8165    0.0000    2.2107 H   0  0  0  0  0  0  0  0  0  0  0  0
   -0.9100   -1.5945    1.2365 H   0  0  0  0  0  0  0  0  0  0  0  0
    2.5491    1.1134   -0.7932 H   0  0  0  0  0  0  0  0  0  0  0  0
    2.9523   -0.6382   -0.8259 H   0  0  0  0  0  0  0  0  0  0  0  0
    4.4402   -0.0430    1.1597 H   0  0  0  0  0  0  0  0  0  0  0  0
    5.4687    1.6596   -0.6053 H   0  0  0  0  0  0  0  0  0  0  0  0
    0.1205    0.1055   -1.5594 H   0  0  0  0  0  0  0  0  0  0  0  0
   -0.3663   -1.5565   -0.8342 H   0  0  0  0  0  0  0  0  0  0  0  0
  1  2  1  0
  2  3  1  0
  2  4  1  0
  4  5  1  0
  5  6  1  0
  6  7  1  0
  7  8  2  0
  7  9  1  0
  9 10  1  0
 10 11  1  0
  6 12  1  0
 12  4  1  0
  1 13  1  0
  1 14  1  0
  1 15  1  0
  2 16  1  6
  3 17  1  0
  4 18  1  0
  5 19  1  0
  5 20  1  0
  9 21  1  0
  9 22  1  0
 10 23  1  0
 11 24  1  0
 12 25  1  0
 12 26  1  0
M  END
$$$$

     RDKit          3D

 26 26  0  0  0  0  0  0  0  0999 V2000
   -3.7666    0.4013    0.3223 C   0  0  0  0  0  0  0  0  0  0  0  0
   -2.5430    0.3888   -0.5694 C   0  0  2  0  0  0  0  0  0  0  0  0
   -2.3986   -0.8294   -1.1862 O   0  0  0  0  0  0  0  0  0  0  0  0
   -1.3613    0.7966    0.2589 C   0  0  0  0  0  0  0  0  0  0  0  0
   -0.0786    0.8231   -0.5162 C   0  0  0  0  0  0  0  0  0  0  0  0
    0.5340   -0.0821    0.4360 N   0  0  0  0  0  0  0  0  0  0  0  0
    1.8701   -0.5480    0.5846 C   0  0  0  0  0  0  0  0  0  0  0  0
    2.1088   -1.3484    1.5280 O   0  0  0  0  0  0  0  0  0  0  0  0
    2.9555   -0.1170   -0.3297 C   0  0  0  0  0  0  0  0  0  0  0  0
    4.1751   -0.7505    0.0721 N   0  0  0  0  0  0  0  0  0  0  0  0
    5.2269   -0.4260   -0.6948 O   0  0  0  0  0  0  0  0  0  0  0  0
   -0.7373   -0.2733    1.1060 C   0  0  0  0  0  0  0  0  0  0  0  0
   -3.4557    0.1848    1.3702 H   0  0  0  0  0  0  0  0  0  0  0  0
   -4.4821   -0.3602   -0.0483 H   0  0  0  0  0  0  0  0  0  0  0  0
   -4.2479    1.3925    0.2332 H   0  0  0  0  0  0  0  0  0  0  0  0
   -2.6353    1.1570   -1.3918 H   0  0  0  0  0  0  0  0  0  0  0  0
   -3.0196   -1.4687   -0.7551 H   0  0  0  0  0  0  0  0  0  0  0  0
   -1.5635    1.7275    0.8149 H   0  0  0  0  0  0  0  0  0  0  0  0
   -0.1696    0.3830   -1.5470 H   0  0  0  0  0  0  0  0  0  0  0  0
    0.4236    1.8057   -0.4749 H   0  0  0  0  0  0  0  0  0  0  0  0
    2.6861   -0.4517   -1.3587 H   0  0  0  0  0  0  0  0  0  0  0  0
    3.0870    0.9846   -0.2959 H   0  0  0  0  0  0  0  0  0  0  0  0
    4.0570   -1.7779    0.1933 H   0  0  0  0  0  0  0  0  0  0  0  0
    5.1156    0.5302   -0.9648 H   0  0  0  0  0  0  0  0  0  0  0  0
   -1.1430   -1.2781    1.0341 H   0  0  0  0  0  0  0  0  0  0  0  0
   -0.6375    0.0256    2.1793 H   0  0  0  0  0  0  0  0  0  0  0  0
  1  2  1  0
  2  3  1  0
  2  4  1  0
  4  5  1  0
  5  6  1  0
  6  7  1  0
  7  8  2  0
  7  9  1  0
  9 10  1  0
 10 11  1  0
  6 12  1  0
 12  4  1  0
  1 13  1  0
  1 14  1  0
  1 15  1  0
  2 16  1  6
  3 17  1  0
  4 18  1  0
  5 19  1  0
  5 20  1  0
  9 21  1  0
  9 22  1  0
 10 23  1  0
 11 24  1  0
 12 25  1  0
 12 26  1  0
M  END
$$$$

     RDKit          3D

 26 26  0  0  0  0  0  0  0  0999 V2000
   -3.0892    0.8817   -0.0907 C   0  0  0  0  0  0  0  0  0  0  0  0
   -1.9151    0.5868    0.8242 C   0  0  2  0  0  0  0  0  0  0  0  0
   -0.8396    1.4319    0.5128 O   0  0  0  0  0  0  0  0  0  0  0  0
   -1.4816   -0.8290    0.6457 C   0  0  0  0  0  0  0  0  0  0  0  0
   -1.0374   -1.2115   -0.7267 C   0  0  0  0  0  0  0  0  0  0  0  0
    0.3317   -0.7852   -0.3837 N   0  0  0  0  0  0  0  0  0  0  0  0
    1.4104   -0.3049   -1.1741 C   0  0  0  0  0  0  0  0  0  0  0  0
    1.2612   -0.1845   -2.4357 O   0  0  0  0  0  0  0  0  0  0  0  0
    2.7231    0.0766   -0.6520 C   0  0  0  0  0  0  0  0  0  0  0  0
    2.9005   -0.0479    0.7608 N   0  0  0  0  0  0  0  0  0  0  0  0
    4.1991    0.3478    1.0042 O   0  0  0  0  0  0  0  0  0  0  0  0
   -0.0148   -1.0953    0.9837 C   0  0  0  0  0  0  0  0  0  0  0  0
   -3.1992    0.1237   -0.8772 H   0  0  0  0  0  0  0  0  0  0  0  0
   -4.0436    1.0007    0.4928 H   0  0  0  0  0  0  0  0  0  0  0  0
   -2.9062    1.8614   -0.5589 H   0  0  0  0  0  0  0  0  0  0  0  0
   -2.2308    0.7334    1.8763 H   0  0  0  0  0  0  0  0  0  0  0  0
   -1.1079    2.0898   -0.1766 H   0  0  0  0  0  0  0  0  0  0  0  0
   -2.1769   -1.5740    1.0805 H   0  0  0  0  0  0  0  0  0  0  0  0
   -1.4075   -0.6139   -1.5580 H   0  0  0  0  0  0  0  0  0  0  0  0
   -1.0247   -2.3032   -0.9099 H   0  0  0  0  0  0  0  0  0  0  0  0
    3.0389    1.1020   -0.9928 H   0  0  0  0  0  0  0  0  0  0  0  0
    3.4960   -0.5984   -1.1270 H   0  0  0  0  0  0  0  0  0  0  0  0
    2.3436    0.6695    1.2950 H   0  0  0  0  0  0  0  0  0  0  0  0
    4.3876    1.2217    0.5764 H   0  0  0  0  0  0  0  0  0  0  0  0
    0.0985   -2.1698    1.2242 H   0  0  0  0  0  0  0  0  0  0  0  0
    0.2839   -0.4095    1.7694 H   0  0  0  0  0  0  0  0  0  0  0  0
  1  2  1  0
  2  3  1  0
  2  4  1  0
  4  5  1  0
  5  6  1  0
  6  7  1  0
  7  8  2  0
  7  9  1  0
  9 10  1  0
 10 11  1  0
  6 12  1  0
 12  4  1  0
  1 13  1  0
  1 14  1  0
  1 15  1  0
  2 16  1  1
  3 17  1  0
  4 18  1  0
  5 19  1  0
  5 20  1  0
  9 21  1  0
  9 22  1  0
 10 23  1  0
 11 24  1  0
 12 25  1  0
 12 26  1  0
M  END
$$$$

     RDKit          3D

 26 26  0  0  0  0  0  0  0  0999 V2000
   -3.8104    0.0384    0.1561 C   0  0  0  0  0  0  0  0  0  0  0  0
   -2.6941   -0.0380   -0.8422 C   0  0  2  0  0  0  0  0  0  0  0  0
   -2.5271   -1.3739   -1.2634 O   0  0  0  0  0  0  0  0  0  0  0  0
   -1.3996    0.5326   -0.3327 C   0  0  0  0  0  0  0  0  0  0  0  0
   -0.2790    0.5333   -1.2994 C   0  0  0  0  0  0  0  0  0  0  0  0
    0.6322    0.2337   -0.2029 N   0  0  0  0  0  0  0  0  0  0  0  0
    1.9671    0.5083    0.0437 C   0  0  0  0  0  0  0  0  0  0  0  0
    2.5726    1.3322   -0.7230 O   0  0  0  0  0  0  0  0  0  0  0  0
    2.7615   -0.1028    1.1113 C   0  0  0  0  0  0  0  0  0  0  0  0
    4.1378    0.4494    1.0788 N   0  0  0  0  0  0  0  0  0  0  0  0
    5.0571   -0.5846    1.2581 O   0  0  0  0  0  0  0  0  0  0  0  0
   -0.4993   -0.4011    0.4480 C   0  0  0  0  0  0  0  0  0  0  0  0
   -4.7529   -0.3605   -0.3626 H   0  0  0  0  0  0  0  0  0  0  0  0
   -4.0147    1.1240    0.3471 H   0  0  0  0  0  0  0  0  0  0  0  0
   -3.5920   -0.5161    1.1014 H   0  0  0  0  0  0  0  0  0  0  0  0
   -2.9613    0.5142   -1.7444 H   0  0  0  0  0  0  0  0  0  0  0  0
   -2.4686   -1.4569   -2.2139 H   0  0  0  0  0  0  0  0  0  0  0  0
   -1.5184    1.5085    0.1892 H   0  0  0  0  0  0  0  0  0  0  0  0
   -0.0773    1.4866   -1.8632 H   0  0  0  0  0  0  0  0  0  0  0  0
   -0.1961   -0.3597   -1.9862 H   0  0  0  0  0  0  0  0  0  0  0  0
    2.8323   -1.1851    1.0756 H   0  0  0  0  0  0  0  0  0  0  0  0
    2.3602    0.2561    2.0643 H   0  0  0  0  0  0  0  0  0  0  0  0
    4.2235    0.9480    2.0507 H   0  0  0  0  0  0  0  0  0  0  0  0
    5.3095   -0.8591    0.2919 H   0  0  0  0  0  0  0  0  0  0  0  0
   -0.5413   -1.4584    0.0644 H   0  0  0  0  0  0  0  0  0  0  0  0
   -0.5220   -0.3220    1.5532 H   0  0  0  0  0  0  0  0  0  0  0  0
  1  2  1  0
  2  3  1  0
  2  4  1  0
  4  5  1  0
  5  6  1  0
  6  7  1  0
  7  8  2  0
  7  9  1  0
  9 10  1  0
 10 11  1  0
  6 12  1  0
 12  4  1  0
  1 13  1  0
  1 14  1  0
  1 15  1  0
  2 16  1  6
  3 17  1  0
  4 18  1  0
  5 19  1  0
  5 20  1  0
  9 21  1  0
  9 22  1  0
 10 23  1  0
 11 24  1  0
 12 25  1  0
 12 26  1  0
M  END
$$$$

     RDKit          3D

 26 26  0  0  0  0  0  0  0  0999 V2000
   -3.2113    0.6967    0.4947 C   0  0  0  0  0  0  0  0  0  0  0  0
   -2.7857   -0.5973   -0.0880 C   0  0  2  0  0  0  0  0  0  0  0  0
   -2.9435   -1.6300    0.8611 O   0  0  0  0  0  0  0  0  0  0  0  0
   -1.3793   -0.6530   -0.5720 C   0  0  0  0  0  0  0  0  0  0  0  0
   -0.3002   -0.4030    0.4277 C   0  0  0  0  0  0  0  0  0  0  0  0
    0.4504    0.2743   -0.6126 N   0  0  0  0  0  0  0  0  0  0  0  0
    1.8098    0.5608   -0.9241 C   0  0  0  0  0  0  0  0  0  0  0  0
    2.0876    1.2047   -1.9669 O   0  0  0  0  0  0  0  0  0  0  0  0
    2.8429    0.0779    0.0111 C   0  0  0  0  0  0  0  0  0  0  0  0
    4.1809    0.4326   -0.4173 N   0  0  0  0  0  0  0  0  0  0  0  0
    5.0861   -0.0234    0.4568 O   0  0  0  0  0  0  0  0  0  0  0  0
   -0.8346    0.5618   -1.2521 C   0  0  0  0  0  0  0  0  0  0  0  0
   -2.4206    1.4135    0.7063 H   0  0  0  0  0  0  0  0  0  0  0  0
   -3.9120    1.2022   -0.2270 H   0  0  0  0  0  0  0  0  0  0  0  0
   -3.7692    0.5090    1.4579 H   0  0  0  0  0  0  0  0  0  0  0  0
   -3.4490   -0.8870   -0.9378 H   0  0  0  0  0  0  0  0  0  0  0  0
   -3.1059   -2.5000    0.4259 H   0  0  0  0  0  0  0  0  0  0  0  0
   -1.1914   -1.5631   -1.1650 H   0  0  0  0  0  0  0  0  0  0  0  0
   -0.5751    0.3008    1.2395 H   0  0  0  0  0  0  0  0  0  0  0  0
    0.2297   -1.3076    0.7713 H   0  0  0  0  0  0  0  0  0  0  0  0
    2.6613    0.5326    0.9989 H   0  0  0  0  0  0  0  0  0  0  0  0
    2.7981   -1.0369    0.0973 H   0  0  0  0  0  0  0  0  0  0  0  0
    4.3581    0.0999   -1.3965 H   0  0  0  0  0  0  0  0  0  0  0  0
    5.3515    0.6764    1.0782 H   0  0  0  0  0  0  0  0  0  0  0  0
   -1.1873    1.5388   -0.9163 H   0  0  0  0  0  0  0  0  0  0  0  0
   -0.7914    0.5197   -2.3600 H   0  0  0  0  0  0  0  0  0  0  0  0
  1  2  1  0
  2  3  1  0
  2  4  1  0
  4  5  1  0
  5  6  1  0
  6  7  1  0
  7  8  2  0
  7  9  1  0
  9 10  1  0
 10 11  1  0
  6 12  1  0
 12  4  1  0
  1 13  1  0
  1 14  1  0
  1 15  1  0
  2 16  1  6
  3 17  1  0
  4 18  1  0
  5 19  1  0
  5 20  1  0
  9 21  1  0
  9 22  1  0
 10 23  1  0
 11 24  1  0
 12 25  1  0
 12 26  1  0
M  END
$$$$

     RDKit          3D

 26 26  0  0  0  0  0  0  0  0999 V2000
   -2.7589   -0.0376    0.9095 C   0  0  0  0  0  0  0  0  0  0  0  0
   -2.6391    0.1739   -0.5712 C   0  0  2  0  0  0  0  0  0  0  0  0
   -3.4932   -0.7344   -1.2221 O   0  0  0  0  0  0  0  0  0  0  0  0
   -1.2480   -0.1549   -1.0163 C   0  0  0  0  0  0  0  0  0  0  0  0
   -0.1197    0.6445   -0.4230 C   0  0  0  0  0  0  0  0  0  0  0  0
    0.6297   -0.5662   -0.2667 N   0  0  0  0  0  0  0  0  0  0  0  0
    1.9819   -0.9452   -0.1138 C   0  0  0  0  0  0  0  0  0  0  0  0
    2.2560   -2.2073   -0.0004 O   0  0  0  0  0  0  0  0  0  0  0  0
    3.1413   -0.0646   -0.0646 C   0  0  0  0  0  0  0  0  0  0  0  0
    2.8550    1.3286   -0.2051 N   0  0  0  0  0  0  0  0  0  0  0  0
    4.0834    1.9606   -0.0815 O   0  0  0  0  0  0  0  0  0  0  0  0
   -0.6047   -1.3109   -0.3145 C   0  0  0  0  0  0  0  0  0  0  0  0
   -3.6832    0.4583    1.3182 H   0  0  0  0  0  0  0  0  0  0  0  0
   -2.8932   -1.1152    1.1749 H   0  0  0  0  0  0  0  0  0  0  0  0
   -1.9115    0.3483    1.4957 H   0  0  0  0  0  0  0  0  0  0  0  0
   -2.9747    1.1761   -0.8890 H   0  0  0  0  0  0  0  0  0  0  0  0
   -4.3139   -0.2913   -1.5622 H   0  0  0  0  0  0  0  0  0  0  0  0
   -1.1106   -0.2322   -2.1194 H   0  0  0  0  0  0  0  0  0  0  0  0
   -0.3804    1.1749    0.5210 H   0  0  0  0  0  0  0  0  0  0  0  0
    0.2550    1.3889   -1.1676 H   0  0  0  0  0  0  0  0  0  0  0  0
    3.6241   -0.1902    0.9454 H   0  0  0  0  0  0  0  0  0  0  0  0
    3.8996   -0.3469   -0.8251 H   0  0  0  0  0  0  0  0  0  0  0  0
    2.5714    1.5775   -1.1925 H   0  0  0  0  0  0  0  0  0  0  0  0
    4.3800    1.7047    0.8487 H   0  0  0  0  0  0  0  0  0  0  0  0
   -0.5938   -2.2079   -0.9666 H   0  0  0  0  0  0  0  0  0  0  0  0
   -0.9524   -1.5315    0.7047 H   0  0  0  0  0  0  0  0  0  0  0  0
  1  2  1  0
  2  3  1  0
  2  4  1  0
  4  5  1  0
  5  6  1  0
  6  7  1  0
  7  8  2  0
  7  9  1  0
  9 10  1  0
 10 11  1  0
  6 12  1  0
 12  4  1  0
  1 13  1  0
  1 14  1  0
  1 15  1  0
  2 16  1  1
  3 17  1  0
  4 18  1  0
  5 19  1  0
  5 20  1  0
  9 21  1  0
  9 22  1  0
 10 23  1  0
 11 24  1  0
 12 25  1  0
 12 26  1  0
M  END
$$$$
