
     RDKit          3D

 24 25  0  0  0  0  0  0  0  0999 V2000
   -2.5964   -1.1775    0.4188 N   0  0  0  0  0  0  0  0  0  0  0  0
   -1.8401    0.0573    0.6398 C   0  0  2  0  0  0  0  0  0  0  0  0
   -2.2628    1.1113   -0.3575 C   0  0  0  0  0  0  0  0  0  0  0  0
   -0.9077    0.9976   -1.0477 C   0  0  0  0  0  0  0  0  0  0  0  0
   -0.5231   -0.0316   -0.0398 C   0  0  1  0  0  0  0  0  0  0  0  0
    0.6192    0.3926    0.7410 N   0  0  0  0  0  0  0  0  0  0  0  0
    1.6584   -0.0705   -0.1551 C   0  0  1  0  0  0  0  0  0  0  0  0
    3.0390   -0.0014    0.3801 C   0  0  0  0  0  0  0  0  0  0  0  0
    3.8041   -0.8877    0.3274 O   0  0  0  0  0  0  0  0  0  0  0  0
    3.3675    1.2436    0.9282 O   0  0  0  0  0  0  0  0  0  0  0  0
    1.1471   -1.5377   -0.1636 C   0  0  0  0  0  0  0  0  0  0  0  0
   -0.1903   -1.2791   -0.5485 O   0  0  0  0  0  0  0  0  0  0  0  0
   -3.5812   -0.8708    0.2063 H   0  0  0  0  0  0  0  0  0  0  0  0
   -2.2400   -1.6567   -0.4481 H   0  0  0  0  0  0  0  0  0  0  0  0
   -1.8159    0.3681    1.6935 H   0  0  0  0  0  0  0  0  0  0  0  0
   -2.4459    2.0649    0.1581 H   0  0  0  0  0  0  0  0  0  0  0  0
   -3.0585    0.8073   -1.0481 H   0  0  0  0  0  0  0  0  0  0  0  0
   -0.9717    0.5751   -2.0762 H   0  0  0  0  0  0  0  0  0  0  0  0
   -0.3842    1.9715   -1.0273 H   0  0  0  0  0  0  0  0  0  0  0  0
    0.6552    0.0809    1.6991 H   0  0  0  0  0  0  0  0  0  0  0  0
    1.5685    0.2734   -1.1630 H   0  0  0  0  0  0  0  0  0  0  0  0
    4.2715    1.6739    0.8543 H   0  0  0  0  0  0  0  0  0  0  0  0
    1.6459   -2.1776   -0.8549 H   0  0  0  0  0  0  0  0  0  0  0  0
    1.0415   -1.9271    0.8832 H   0  0  0  0  0  0  0  0  0  0  0  0
  1  2  1  0
  2  3  1  0
  3  4  1  0
  4  5  1  0
  5  6  1  0
  6  7  1  0
  7  8  1  0
  8  9  2  0
  8 10  1  0
  7 11  1  0
 11 12  1  0
  5  2  1  0
  5 12  1  6
  1 13  1  0
  1 14  1  0
  2 15  1  1
  3 16  1  0
  3 17  1  0
  4 18  1  0
  4 19  1  0
  6 20  1  0
  7 21  1  6
 10 22  1  0
 11 23  1  0
 11 24  1  0
M  END
$$$$

     RDKit          3D

 24 25  0  0  0  0  0  0  0  0999 V2000
   -2.7049    0.1667    0.9448 N   0  0  0  0  0  0  0  0  0  0  0  0
   -1.7353    0.7081    0.0077 C   0  0  2  0  0  0  0  0  0  0  0  0
   -2.0781    0.2907   -1.4292 C   0  0  0  0  0  0  0  0  0  0  0  0
   -1.2726   -0.9769   -1.1665 C   0  0  0  0  0  0  0  0  0  0  0  0
   -0.5317   -0.1791   -0.0869 C   0  0  1  0  0  0  0  0  0  0  0  0
    0.6583    0.3903   -0.6245 N   0  0  0  0  0  0  0  0  0  0  0  0
    1.7444   -0.2700    0.0800 C   0  0  1  0  0  0  0  0  0  0  0  0
    2.8922    0.6466    0.2633 C   0  0  0  0  0  0  0  0  0  0  0  0
    2.9140    1.8252   -0.1369 O   0  0  0  0  0  0  0  0  0  0  0  0
    4.0134    0.1589    0.9230 O   0  0  0  0  0  0  0  0  0  0  0  0
    1.0899   -0.6614    1.3771 C   0  0  0  0  0  0  0  0  0  0  0  0
   -0.2212   -0.9386    1.0097 O   0  0  0  0  0  0  0  0  0  0  0  0
   -3.6725    0.5555    0.7617 H   0  0  0  0  0  0  0  0  0  0  0  0
   -2.7385   -0.8716    0.7981 H   0  0  0  0  0  0  0  0  0  0  0  0
   -1.5463    1.7877    0.1173 H   0  0  0  0  0  0  0  0  0  0  0  0
   -3.1388    0.1424   -1.6245 H   0  0  0  0  0  0  0  0  0  0  0  0
   -1.5217    0.9358   -2.1485 H   0  0  0  0  0  0  0  0  0  0  0  0
   -0.6261   -1.2971   -1.9998 H   0  0  0  0  0  0  0  0  0  0  0  0
   -1.8499   -1.8240   -0.7766 H   0  0  0  0  0  0  0  0  0  0  0  0
    0.7151    1.4279   -0.5431 H   0  0  0  0  0  0  0  0  0  0  0  0
    2.0238   -1.1703   -0.4679 H   0  0  0  0  0  0  0  0  0  0  0  0
    4.9400    0.5766    0.8013 H   0  0  0  0  0  0  0  0  0  0  0  0
    1.0777    0.1603    2.1115 H   0  0  0  0  0  0  0  0  0  0  0  0
    1.5689   -1.5840    1.8088 H   0  0  0  0  0  0  0  0  0  0  0  0
  1  2  1  0
  2  3  1  0
  3  4  1  0
  4  5  1  0
  5  6  1  0
  6  7  1  0
  7  8  1  0
  8  9  2  0
  8 10  1  0
  7 11  1  0
 11 12  1  0
  5  2  1  0
  5 12  1  1
  1 13  1  0
  1 14  1  0
  2 15  1  6
  3 16  1  0
  3 17  1  0
  4 18  1  0
  4 19  1  0
  6 20  1  0
  7 21  1  6
 10 22  1  0
 11 23  1  0
 11 24  1  0
M  END
$$$$

     RDKit          3D

 24 25  0  0  0  0  0  0  0  0999 V2000
   -2.5341   -1.2828    0.3102 N   0  0  0  0  0  0  0  0  0  0  0  0
   -1.6799   -0.1919    0.7674 C   0  0  2  0  0  0  0  0  0  0  0  0
   -2.2215    1.1328    0.2460 C   0  0  0  0  0  0  0  0  0  0  0  0
   -1.3580    0.8918   -0.9891 C   0  0  0  0  0  0  0  0  0  0  0  0
   -0.5238   -0.0345   -0.1717 C   0  0  1  0  0  0  0  0  0  0  0  0
    0.6607    0.5434    0.3687 N   0  0  0  0  0  0  0  0  0  0  0  0
    1.6482    0.0696   -0.5610 C   0  0  1  0  0  0  0  0  0  0  0  0
    3.0603    0.1770   -0.1220 C   0  0  0  0  0  0  0  0  0  0  0  0
    3.8124   -0.7036   -0.2645 O   0  0  0  0  0  0  0  0  0  0  0  0
    3.4068    1.4129    0.4322 O   0  0  0  0  0  0  0  0  0  0  0  0
    1.1960   -1.4353   -0.4003 C   0  0  0  0  0  0  0  0  0  0  0  0
   -0.1620   -1.2339   -0.7547 O   0  0  0  0  0  0  0  0  0  0  0  0
   -3.3330   -0.9313   -0.2776 H   0  0  0  0  0  0  0  0  0  0  0  0
   -1.9991   -1.9378   -0.3193 H   0  0  0  0  0  0  0  0  0  0  0  0
   -1.4489   -0.2204    1.8394 H   0  0  0  0  0  0  0  0  0  0  0  0
   -1.8980    1.9940    0.8515 H   0  0  0  0  0  0  0  0  0  0  0  0
   -3.3083    1.1156    0.0481 H   0  0  0  0  0  0  0  0  0  0  0  0
   -0.8603    1.8327   -1.3014 H   0  0  0  0  0  0  0  0  0  0  0  0
   -1.9056    0.3989   -1.8202 H   0  0  0  0  0  0  0  0  0  0  0  0
    0.8143    0.4354    1.3548 H   0  0  0  0  0  0  0  0  0  0  0  0
    1.4491    0.2997   -1.5760 H   0  0  0  0  0  0  0  0  0  0  0  0
    4.3116    1.4249    0.9237 H   0  0  0  0  0  0  0  0  0  0  0  0
    1.7086   -2.1131   -1.0321 H   0  0  0  0  0  0  0  0  0  0  0  0
    1.1641   -1.6439    0.6814 H   0  0  0  0  0  0  0  0  0  0  0  0
  1  2  1  0
  2  3  1  0
  3  4  1  0
  4  5  1  0
  5  6  1  0
  6  7  1  0
  7  8  1  0
  8  9  2  0
  8 10  1  0
  7 11  1  0
 11 12  1  0
  5  2  1  0
  5 12  1  6
  1 13  1  0
  1 14  1  0
  2 15  1  1
  3 16  1  0
  3 17  1  0
  4 18  1  0
  4 19  1  0
  6 20  1  0
  7 21  1  6
 10 22  1  0
 11 23  1  0
 11 24  1  0
M  END
$$$$

     RDKit          3D

 24 25  0  0  0  0  0  0  0  0999 V2000
   -2.3061    0.9277    1.1973 N   0  0  0  0  0  0  0  0  0  0  0  0
   -1.8504    0.5014   -0.0956 C   0  0  2  0  0  0  0  0  0  0  0  0
   -2.4999   -0.8381   -0.4574 C   0  0  0  0  0  0  0  0  0  0  0  0
   -1.1595   -1.2342   -1.0680 C   0  0  0  0  0  0  0  0  0  0  0  0
   -0.5240   -0.1866   -0.1488 C   0  0  1  0  0  0  0  0  0  0  0  0
    0.5505    0.5614   -0.7652 N   0  0  0  0  0  0  0  0  0  0  0  0
    1.7085   -0.1158   -0.2120 C   0  0  1  0  0  0  0  0  0  0  0  0
    2.9343    0.6624   -0.2922 C   0  0  0  0  0  0  0  0  0  0  0  0
    2.9241    1.8037   -0.8027 O   0  0  0  0  0  0  0  0  0  0  0  0
    4.1236    0.1582    0.1907 O   0  0  0  0  0  0  0  0  0  0  0  0
    1.2431   -0.3497    1.2167 C   0  0  0  0  0  0  0  0  0  0  0  0
   -0.0799   -0.6737    1.0494 O   0  0  0  0  0  0  0  0  0  0  0  0
   -3.3327    0.7258    1.2926 H   0  0  0  0  0  0  0  0  0  0  0  0
   -2.1135    1.9418    1.3379 H   0  0  0  0  0  0  0  0  0  0  0  0
   -2.0522    1.2263   -0.9217 H   0  0  0  0  0  0  0  0  0  0  0  0
   -3.3209   -0.7331   -1.1773 H   0  0  0  0  0  0  0  0  0  0  0  0
   -2.7282   -1.4734    0.4334 H   0  0  0  0  0  0  0  0  0  0  0  0
   -1.0762   -0.8882   -2.1037 H   0  0  0  0  0  0  0  0  0  0  0  0
   -0.8517   -2.2707   -0.8605 H   0  0  0  0  0  0  0  0  0  0  0  0
    0.4783    1.5472   -0.4232 H   0  0  0  0  0  0  0  0  0  0  0  0
    1.7609   -1.1050   -0.7108 H   0  0  0  0  0  0  0  0  0  0  0  0
    5.0410    0.4600   -0.1611 H   0  0  0  0  0  0  0  0  0  0  0  0
    1.3177    0.5592    1.8245 H   0  0  0  0  0  0  0  0  0  0  0  0
    1.8131   -1.2065    1.6575 H   0  0  0  0  0  0  0  0  0  0  0  0
  1  2  1  0
  2  3  1  0
  3  4  1  0
  4  5  1  0
  5  6  1  0
  6  7  1  0
  7  8  1  0
  8  9  2  0
  8 10  1  0
  7 11  1  0
 11 12  1  0
  5  2  1  0
  5 12  1  1
  1 13  1  0
  1 14  1  0
  2 15  1  6
  3 16  1  0
  3 17  1  0
  4 18  1  0
  4 19  1  0
  6 20  1  0
  7 21  1  6
 10 22  1  0
 11 23  1  0
 11 24  1  0
M  END
$$$$

     RDKit          3D

 24 25  0  0  0  0  0  0  0  0999 V2000
   -1.9668    1.7155    0.7244 N   0  0  0  0  0  0  0  0  0  0  0  0
   -1.8350    0.5941   -0.1824 C   0  0  2  0  0  0  0  0  0  0  0  0
   -2.5328   -0.6775    0.3225 C   0  0  0  0  0  0  0  0  0  0  0  0
   -1.3481   -1.4393   -0.2896 C   0  0  0  0  0  0  0  0  0  0  0  0
   -0.5481   -0.1741   -0.0635 C   0  0  1  0  0  0  0  0  0  0  0  0
    0.4646    0.1111   -1.0243 N   0  0  0  0  0  0  0  0  0  0  0  0
    1.6721   -0.3442   -0.3606 C   0  0  1  0  0  0  0  0  0  0  0  0
    2.8293    0.5421   -0.6760 C   0  0  0  0  0  0  0  0  0  0  0  0
    2.7003    1.5374   -1.4278 O   0  0  0  0  0  0  0  0  0  0  0  0
    4.0569    0.2313   -0.1108 O   0  0  0  0  0  0  0  0  0  0  0  0
    1.3623   -0.2033    1.1000 C   0  0  0  0  0  0  0  0  0  0  0  0
   -0.0169   -0.0951    1.1949 O   0  0  0  0  0  0  0  0  0  0  0  0
   -2.9175    1.7900    1.1484 H   0  0  0  0  0  0  0  0  0  0  0  0
   -1.7663    2.5821    0.1681 H   0  0  0  0  0  0  0  0  0  0  0  0
   -2.1885    0.7756   -1.2204 H   0  0  0  0  0  0  0  0  0  0  0  0
   -3.4905   -0.8944   -0.1477 H   0  0  0  0  0  0  0  0  0  0  0  0
   -2.4696   -0.7721    1.4248 H   0  0  0  0  0  0  0  0  0  0  0  0
   -1.0219   -2.2830    0.3261 H   0  0  0  0  0  0  0  0  0  0  0  0
   -1.5836   -1.6465   -1.3451 H   0  0  0  0  0  0  0  0  0  0  0  0
    0.3228   -0.3733   -1.9204 H   0  0  0  0  0  0  0  0  0  0  0  0
    1.8907   -1.4127   -0.5747 H   0  0  0  0  0  0  0  0  0  0  0  0
    4.8812    0.8035   -0.2599 H   0  0  0  0  0  0  0  0  0  0  0  0
    1.7120   -1.1031    1.6653 H   0  0  0  0  0  0  0  0  0  0  0  0
    1.7935    0.7359    1.5283 H   0  0  0  0  0  0  0  0  0  0  0  0
  1  2  1  0
  2  3  1  0
  3  4  1  0
  4  5  1  0
  5  6  1  0
  6  7  1  0
  7  8  1  0
  8  9  2  0
  8 10  1  0
  7 11  1  0
 11 12  1  0
  5  2  1  0
  5 12  1  1
  1 13  1  0
  1 14  1  0
  2 15  1  6
  3 16  1  0
  3 17  1  0
  4 18  1  0
  4 19  1  0
  6 20  1  0
  7 21  1  1
 10 22  1  0
 11 23  1  0
 11 24  1  0
M  END
$$$$

     RDKit          3D

 24 25  0  0  0  0  0  0  0  0999 V2000
   -2.7031    0.6399   -1.0710 N   0  0  0  0  0  0  0  0  0  0  0  0
   -1.9231   -0.3704   -0.3803 C   0  0  2  0  0  0  0  0  0  0  0  0
   -2.2553   -0.2894    1.1163 C   0  0  0  0  0  0  0  0  0  0  0  0
   -1.1236    0.7351    1.2175 C   0  0  0  0  0  0  0  0  0  0  0  0
   -0.5601    0.1207   -0.0556 C   0  0  1  0  0  0  0  0  0  0  0  0
    0.4140   -0.8962    0.3107 N   0  0  0  0  0  0  0  0  0  0  0  0
    1.6300   -0.1059    0.2355 C   0  0  1  0  0  0  0  0  0  0  0  0
    2.8456   -0.9357    0.1847 C   0  0  0  0  0  0  0  0  0  0  0  0
    2.8497   -2.1882    0.2034 O   0  0  0  0  0  0  0  0  0  0  0  0
    4.0658   -0.2774    0.1113 O   0  0  0  0  0  0  0  0  0  0  0  0
    1.3728    0.6314   -1.0624 C   0  0  0  0  0  0  0  0  0  0  0  0
    0.0374    0.9912   -0.9170 O   0  0  0  0  0  0  0  0  0  0  0  0
   -3.6531    0.7409   -0.6037 H   0  0  0  0  0  0  0  0  0  0  0  0
   -2.2622    1.5981   -0.9368 H   0  0  0  0  0  0  0  0  0  0  0  0
   -2.0295   -1.3689   -0.8052 H   0  0  0  0  0  0  0  0  0  0  0  0
   -1.9523   -1.2259    1.6168 H   0  0  0  0  0  0  0  0  0  0  0  0
   -3.2517    0.1028    1.3420 H   0  0  0  0  0  0  0  0  0  0  0  0
   -1.4711    1.7828    1.0843 H   0  0  0  0  0  0  0  0  0  0  0  0
   -0.5113    0.5734    2.1220 H   0  0  0  0  0  0  0  0  0  0  0  0
    0.4094   -1.6301   -0.4426 H   0  0  0  0  0  0  0  0  0  0  0  0
    1.6297    0.6332    1.0395 H   0  0  0  0  0  0  0  0  0  0  0  0
    4.9246   -0.6649    0.4980 H   0  0  0  0  0  0  0  0  0  0  0  0
    1.4775   -0.0954   -1.9120 H   0  0  0  0  0  0  0  0  0  0  0  0
    2.0399    1.4990   -1.1942 H   0  0  0  0  0  0  0  0  0  0  0  0
  1  2  1  0
  2  3  1  0
  3  4  1  0
  4  5  1  0
  5  6  1  0
  6  7  1  0
  7  8  1  0
  8  9  2  0
  8 10  1  0
  7 11  1  0
 11 12  1  0
  5  2  1  0
  5 12  1  6
  1 13  1  0
  1 14  1  0
  2 15  1  6
  3 16  1  0
  3 17  1  0
  4 18  1  0
  4 19  1  0
  6 20  1  0
  7 21  1  1
 10 22  1  0
 11 23  1  0
 11 24  1  0
M  END
$$$$

     RDKit          3D

 24 25  0  0  0  0  0  0  0  0999 V2000
   -2.5608   -1.5101   -0.8371 N   0  0  0  0  0  0  0  0  0  0  0  0
   -1.8073   -0.8842    0.2097 C   0  0  2  0  0  0  0  0  0  0  0  0
   -2.2965    0.5630    0.3913 C   0  0  0  0  0  0  0  0  0  0  0  0
   -1.3860    0.8933   -0.7942 C   0  0  0  0  0  0  0  0  0  0  0  0
   -0.5452   -0.2878   -0.2947 C   0  0  1  0  0  0  0  0  0  0  0  0
    0.3658    0.2166    0.7315 N   0  0  0  0  0  0  0  0  0  0  0  0
    1.5237    0.4767   -0.1074 C   0  0  1  0  0  0  0  0  0  0  0  0
    2.7444    0.7112    0.6511 C   0  0  0  0  0  0  0  0  0  0  0  0
    2.8147    0.6954    1.9062 O   0  0  0  0  0  0  0  0  0  0  0  0
    3.9176    0.9711   -0.0437 O   0  0  0  0  0  0  0  0  0  0  0  0
    1.5409   -0.7993   -0.9245 C   0  0  0  0  0  0  0  0  0  0  0  0
    0.1840   -0.9387   -1.2252 O   0  0  0  0  0  0  0  0  0  0  0  0
   -3.3252   -0.8930   -1.2218 H   0  0  0  0  0  0  0  0  0  0  0  0
   -1.9634   -1.7459   -1.6734 H   0  0  0  0  0  0  0  0  0  0  0  0
   -1.7612   -1.4394    1.1680 H   0  0  0  0  0  0  0  0  0  0  0  0
   -3.3611    0.7087    0.2149 H   0  0  0  0  0  0  0  0  0  0  0  0
   -1.8778    1.0081    1.3175 H   0  0  0  0  0  0  0  0  0  0  0  0
   -0.8703    1.8603   -0.7081 H   0  0  0  0  0  0  0  0  0  0  0  0
   -1.8807    0.7033   -1.7523 H   0  0  0  0  0  0  0  0  0  0  0  0
    0.6185   -0.6337    1.3142 H   0  0  0  0  0  0  0  0  0  0  0  0
    1.2374    1.2945   -0.7968 H   0  0  0  0  0  0  0  0  0  0  0  0
    4.7147    1.4532    0.3486 H   0  0  0  0  0  0  0  0  0  0  0  0
    2.1808   -0.7387   -1.8099 H   0  0  0  0  0  0  0  0  0  0  0  0
    1.7930   -1.6846   -0.2731 H   0  0  0  0  0  0  0  0  0  0  0  0
  1  2  1  0
  2  3  1  0
  3  4  1  0
  4  5  1  0
  5  6  1  0
  6  7  1  0
  7  8  1  0
  8  9  2  0
  8 10  1  0
  7 11  1  0
 11 12  1  0
  5  2  1  0
  5 12  1  6
  1 13  1  0
  1 14  1  0
  2 15  1  1
  3 16  1  0
  3 17  1  0
  4 18  1  0
  4 19  1  0
  6 20  1  0
  7 21  1  6
 10 22  1  0
 11 23  1  0
 11 24  1  0
M  END
$$$$

     RDKit          3D

 24 25  0  0  0  0  0  0  0  0999 V2000
   -1.9148    1.7117   -0.0350 N   0  0  0  0  0  0  0  0  0  0  0  0
   -1.6467    0.5248   -0.7664 C   0  0  2  0  0  0  0  0  0  0  0  0
   -2.5766   -0.6273   -0.6098 C   0  0  0  0  0  0  0  0  0  0  0  0
   -1.3729   -1.5350   -0.4074 C   0  0  0  0  0  0  0  0  0  0  0  0
   -0.5606   -0.2960   -0.1042 C   0  0  1  0  0  0  0  0  0  0  0  0
    0.7176   -0.2258   -0.6767 N   0  0  0  0  0  0  0  0  0  0  0  0
    1.7158   -0.3224    0.3092 C   0  0  1  0  0  0  0  0  0  0  0  0
    2.9190    0.4806    0.0996 C   0  0  0  0  0  0  0  0  0  0  0  0
    3.0023    1.1982   -0.9215 O   0  0  0  0  0  0  0  0  0  0  0  0
    3.9345    0.4296    1.0306 O   0  0  0  0  0  0  0  0  0  0  0  0
    0.9117    0.1356    1.5303 C   0  0  0  0  0  0  0  0  0  0  0  0
   -0.4108   -0.0842    1.2419 O   0  0  0  0  0  0  0  0  0  0  0  0
   -2.4786    2.4239   -0.5031 H   0  0  0  0  0  0  0  0  0  0  0  0
   -2.0615    1.5975    0.9694 H   0  0  0  0  0  0  0  0  0  0  0  0
   -1.4548    0.7466   -1.8361 H   0  0  0  0  0  0  0  0  0  0  0  0
   -3.0853   -0.9519   -1.5641 H   0  0  0  0  0  0  0  0  0  0  0  0
   -3.2264   -0.6501    0.2696 H   0  0  0  0  0  0  0  0  0  0  0  0
   -1.0142   -2.0569   -1.2970 H   0  0  0  0  0  0  0  0  0  0  0  0
   -1.4303   -2.1930    0.4705 H   0  0  0  0  0  0  0  0  0  0  0  0
    0.8868   -0.4507   -1.6215 H   0  0  0  0  0  0  0  0  0  0  0  0
    1.9450   -1.3937    0.4977 H   0  0  0  0  0  0  0  0  0  0  0  0
    4.8824    0.6793    0.7583 H   0  0  0  0  0  0  0  0  0  0  0  0
    1.0754    1.2308    1.5938 H   0  0  0  0  0  0  0  0  0  0  0  0
    1.2429   -0.3715    2.4460 H   0  0  0  0  0  0  0  0  0  0  0  0
  1  2  1  0
  2  3  1  0
  3  4  1  0
  4  5  1  0
  5  6  1  0
  6  7  1  0
  7  8  1  0
  8  9  2  0
  8 10  1  0
  7 11  1  0
 11 12  1  0
  5  2  1  0
  5 12  1  1
  1 13  1  0
  1 14  1  0
  2 15  1  6
  3 16  1  0
  3 17  1  0
  4 18  1  0
  4 19  1  0
  6 20  1  0
  7 21  1  1
 10 22  1  0
 11 23  1  0
 11 24  1  0
M  END
$$$$
