
     RDKit          3D

 29 29  0  0  0  0  0  0  0  0999 V2000
    3.1173    1.8170    0.4305 C   0  0  0  0  0  0  0  0  0  0  0  0
    1.9898    1.0420    0.7883 O   0  0  0  0  0  0  0  0  0  0  0  0
    1.8327   -0.2294    0.2404 C   0  0  0  0  0  0  0  0  0  0  0  0
    2.7301   -0.6257   -0.5650 O   0  0  0  0  0  0  0  0  0  0  0  0
    0.6878   -1.1030    0.5615 C   0  0  2  0  0  0  0  0  0  0  0  0
    0.9443   -2.3978   -0.0942 N   0  0  0  0  0  0  0  0  0  0  0  0
   -0.5419   -0.5555   -0.1248 C   0  0  1  0  0  0  0  0  0  0  0  0
   -0.3102   -0.3911   -1.5009 O   0  0  0  0  0  0  0  0  0  0  0  0
   -1.7138   -1.4979    0.0184 C   0  0  0  0  0  0  0  0  0  0  0  0
   -2.8436   -0.5605   -0.3540 C   0  0  0  0  0  0  0  0  0  0  0  0
   -2.4957    0.6528    0.3757 N   0  0  0  0  0  0  0  0  0  0  0  0
   -1.0656    0.7181    0.4094 C   0  0  2  0  0  0  0  0  0  0  0  0
   -0.5390    1.9415   -0.3153 C   0  0  0  0  0  0  0  0  0  0  0  0
    2.9240    2.9070    0.5761 H   0  0  0  0  0  0  0  0  0  0  0  0
    4.0353    1.4879    0.9950 H   0  0  0  0  0  0  0  0  0  0  0  0
    3.3851    1.6639   -0.6525 H   0  0  0  0  0  0  0  0  0  0  0  0
    0.5355   -1.2650    1.6278 H   0  0  0  0  0  0  0  0  0  0  0  0
    1.7419   -2.8988    0.3749 H   0  0  0  0  0  0  0  0  0  0  0  0
    1.3065   -2.1437   -1.0498 H   0  0  0  0  0  0  0  0  0  0  0  0
   -0.4825   -1.2367   -1.9815 H   0  0  0  0  0  0  0  0  0  0  0  0
   -1.8528   -1.7839    1.0806 H   0  0  0  0  0  0  0  0  0  0  0  0
   -1.6464   -2.3658   -0.6609 H   0  0  0  0  0  0  0  0  0  0  0  0
   -2.7357   -0.3615   -1.4459 H   0  0  0  0  0  0  0  0  0  0  0  0
   -3.8327   -0.9442   -0.1166 H   0  0  0  0  0  0  0  0  0  0  0  0
   -2.9220    0.5211    1.3402 H   0  0  0  0  0  0  0  0  0  0  0  0
   -0.7775    0.8208    1.4966 H   0  0  0  0  0  0  0  0  0  0  0  0
   -1.4506    2.4455   -0.7638 H   0  0  0  0  0  0  0  0  0  0  0  0
   -0.1740    2.6628    0.4275 H   0  0  0  0  0  0  0  0  0  0  0  0
    0.1536    1.6801   -1.1175 H   0  0  0  0  0  0  0  0  0  0  0  0
  1  2  1  0
  2  3  1  0
  3  4  2  0
  3  5  1  0
  5  6  1  0
  5  7  1  0
  7  8  1  6
  7  9  1  0
  9 10  1  0
 10 11  1  0
 11 12  1  0
 12 13  1  0
 12  7  1  0
  1 14  1  0
  1 15  1  0
  1 16  1  0
  5 17  1  1
  6 18  1  0
  6 19  1  0
  8 20  1  0
  9 21  1  0
  9 22  1  0
 10 23  1  0
 10 24  1  0
 11 25  1  0
 12 26  1  1
 13 27  1  0
 13 28  1  0
 13 29  1  0
M  END
$$$$

     RDKit          3D

 29 29  0  0  0  0  0  0  0  0999 V2000
    3.5134   -0.1860    1.1272 C   0  0  0  0  0  0  0  0  0  0  0  0
    2.6203    0.2499    0.0964 O   0  0  0  0  0  0  0  0  0  0  0  0
    1.5262   -0.5330   -0.2647 C   0  0  0  0  0  0  0  0  0  0  0  0
    1.3718   -1.6170    0.3507 O   0  0  0  0  0  0  0  0  0  0  0  0
    0.5775   -0.1179   -1.3268 C   0  0  2  0  0  0  0  0  0  0  0  0
    0.9669    1.1635   -1.8937 N   0  0  0  0  0  0  0  0  0  0  0  0
   -0.8323    0.0321   -0.8194 C   0  0  1  0  0  0  0  0  0  0  0  0
   -1.6467    0.3788   -1.8954 O   0  0  0  0  0  0  0  0  0  0  0  0
   -1.3598   -1.1790   -0.1095 C   0  0  0  0  0  0  0  0  0  0  0  0
   -1.3067   -0.8631    1.3791 C   0  0  0  0  0  0  0  0  0  0  0  0
   -0.5031    0.3213    1.4320 N   0  0  0  0  0  0  0  0  0  0  0  0
   -0.8708    1.0890    0.2577 C   0  0  2  0  0  0  0  0  0  0  0  0
   -2.2487    1.6616    0.3287 C   0  0  0  0  0  0  0  0  0  0  0  0
    2.9950   -0.3504    2.0813 H   0  0  0  0  0  0  0  0  0  0  0  0
    4.2391    0.6425    1.2645 H   0  0  0  0  0  0  0  0  0  0  0  0
    4.0587   -1.0985    0.8283 H   0  0  0  0  0  0  0  0  0  0  0  0
    0.5671   -0.8711   -2.1396 H   0  0  0  0  0  0  0  0  0  0  0  0
    1.8278    1.5491   -1.4803 H   0  0  0  0  0  0  0  0  0  0  0  0
    0.9523    1.1506   -2.9358 H   0  0  0  0  0  0  0  0  0  0  0  0
   -1.5133   -0.2795   -2.6102 H   0  0  0  0  0  0  0  0  0  0  0  0
   -0.7972   -2.0928   -0.3624 H   0  0  0  0  0  0  0  0  0  0  0  0
   -2.4388   -1.2748   -0.4027 H   0  0  0  0  0  0  0  0  0  0  0  0
   -2.3470   -0.6835    1.7738 H   0  0  0  0  0  0  0  0  0  0  0  0
   -0.8568   -1.6742    1.9585 H   0  0  0  0  0  0  0  0  0  0  0  0
   -0.5724    0.8530    2.3086 H   0  0  0  0  0  0  0  0  0  0  0  0
   -0.0791    1.8565    0.1215 H   0  0  0  0  0  0  0  0  0  0  0  0
   -2.9912    0.9469   -0.1024 H   0  0  0  0  0  0  0  0  0  0  0  0
   -2.5332    1.8966    1.3561 H   0  0  0  0  0  0  0  0  0  0  0  0
   -2.3191    2.5717   -0.3214 H   0  0  0  0  0  0  0  0  0  0  0  0
  1  2  1  0
  2  3  1  0
  3  4  2  0
  3  5  1  0
  5  6  1  0
  5  7  1  0
  7  8  1  6
  7  9  1  0
  9 10  1  0
 10 11  1  0
 11 12  1  0
 12 13  1  0
 12  7  1  0
  1 14  1  0
  1 15  1  0
  1 16  1  0
  5 17  1  6
  6 18  1  0
  6 19  1  0
  8 20  1  0
  9 21  1  0
  9 22  1  0
 10 23  1  0
 10 24  1  0
 11 25  1  0
 12 26  1  6
 13 27  1  0
 13 28  1  0
 13 29  1  0
M  END
$$$$

     RDKit          3D

 29 29  0  0  0  0  0  0  0  0999 V2000
    3.4814    0.5578    1.4795 C   0  0  0  0  0  0  0  0  0  0  0  0
    2.3877   -0.1220    0.8899 O   0  0  0  0  0  0  0  0  0  0  0  0
    1.8179    0.2768   -0.3110 C   0  0  0  0  0  0  0  0  0  0  0  0
    2.3570    1.2914   -0.8267 O   0  0  0  0  0  0  0  0  0  0  0  0
    0.7121   -0.3401   -0.9908 C   0  0  2  0  0  0  0  0  0  0  0  0
    0.4302    0.3860   -2.2131 N   0  0  0  0  0  0  0  0  0  0  0  0
   -0.5542   -0.5307   -0.2593 C   0  0  1  0  0  0  0  0  0  0  0  0
   -1.4055   -1.2719   -1.1186 O   0  0  0  0  0  0  0  0  0  0  0  0
   -0.4939   -1.2850    1.0104 C   0  0  0  0  0  0  0  0  0  0  0  0
   -1.7405   -0.8131    1.7450 C   0  0  0  0  0  0  0  0  0  0  0  0
   -2.3906    0.1433    0.8928 N   0  0  0  0  0  0  0  0  0  0  0  0
   -1.2939    0.7115    0.1001 C   0  0  2  0  0  0  0  0  0  0  0  0
   -1.9084    1.4235   -1.0636 C   0  0  0  0  0  0  0  0  0  0  0  0
    3.8962    1.2301    0.6763 H   0  0  0  0  0  0  0  0  0  0  0  0
    4.2973   -0.1751    1.6929 H   0  0  0  0  0  0  0  0  0  0  0  0
    3.1977    1.1638    2.3470 H   0  0  0  0  0  0  0  0  0  0  0  0
    1.0462   -1.3641   -1.3380 H   0  0  0  0  0  0  0  0  0  0  0  0
    1.3543    0.5312   -2.7067 H   0  0  0  0  0  0  0  0  0  0  0  0
   -0.1747   -0.1505   -2.8674 H   0  0  0  0  0  0  0  0  0  0  0  0
   -0.9052   -2.1119   -1.2956 H   0  0  0  0  0  0  0  0  0  0  0  0
    0.3588   -1.0538    1.6642 H   0  0  0  0  0  0  0  0  0  0  0  0
   -0.5255   -2.3679    0.8197 H   0  0  0  0  0  0  0  0  0  0  0  0
   -1.5028   -0.3102    2.6985 H   0  0  0  0  0  0  0  0  0  0  0  0
   -2.3902   -1.6775    1.9996 H   0  0  0  0  0  0  0  0  0  0  0  0
   -2.9602   -0.4154    0.1897 H   0  0  0  0  0  0  0  0  0  0  0  0
   -0.7433    1.3916    0.7589 H   0  0  0  0  0  0  0  0  0  0  0  0
   -2.7941    1.9989   -0.6716 H   0  0  0  0  0  0  0  0  0  0  0  0
   -2.3102    0.6985   -1.7872 H   0  0  0  0  0  0  0  0  0  0  0  0
   -1.2438    2.1848   -1.5148 H   0  0  0  0  0  0  0  0  0  0  0  0
  1  2  1  0
  2  3  1  0
  3  4  2  0
  3  5  1  0
  5  6  1  0
  5  7  1  0
  7  8  1  6
  7  9  1  0
  9 10  1  0
 10 11  1  0
 11 12  1  0
 12 13  1  0
 12  7  1  0
  1 14  1  0
  1 15  1  0
  1 16  1  0
  5 17  1  6
  6 18  1  0
  6 19  1  0
  8 20  1  0
  9 21  1  0
  9 22  1  0
 10 23  1  0
 10 24  1  0
 11 25  1  0
 12 26  1  1
 13 27  1  0
 13 28  1  0
 13 29  1  0
M  END
$$$$

     RDKit          3D

 29 29  0  0  0  0  0  0  0  0999 V2000
    3.7277   -0.8068    1.3692 C   0  0  0  0  0  0  0  0  0  0  0  0
    2.4563   -0.9568    0.8058 O   0  0  0  0  0  0  0  0  0  0  0  0
    2.0991   -0.2638   -0.3414 C   0  0  0  0  0  0  0  0  0  0  0  0
    2.9812    0.4976   -0.8347 O   0  0  0  0  0  0  0  0  0  0  0  0
    0.7500   -0.4058   -0.9624 C   0  0  2  0  0  0  0  0  0  0  0  0
    0.6214    0.4129   -2.1417 N   0  0  0  0  0  0  0  0  0  0  0  0
   -0.3420   -0.1309    0.0459 C   0  0  1  0  0  0  0  0  0  0  0  0
   -0.1526   -0.9543    1.1530 O   0  0  0  0  0  0  0  0  0  0  0  0
   -0.3924    1.2864    0.4942 C   0  0  0  0  0  0  0  0  0  0  0  0
   -1.7385    1.8169    0.0297 C   0  0  0  0  0  0  0  0  0  0  0  0
   -2.2218    0.9024   -0.9595 N   0  0  0  0  0  0  0  0  0  0  0  0
   -1.7074   -0.3899   -0.4932 C   0  0  2  0  0  0  0  0  0  0  0  0
   -2.6627   -0.8448    0.6176 C   0  0  0  0  0  0  0  0  0  0  0  0
    4.3933   -1.6090    1.0019 H   0  0  0  0  0  0  0  0  0  0  0  0
    4.1843    0.1804    1.1659 H   0  0  0  0  0  0  0  0  0  0  0  0
    3.6085   -0.8906    2.4839 H   0  0  0  0  0  0  0  0  0  0  0  0
    0.6585   -1.4651   -1.2813 H   0  0  0  0  0  0  0  0  0  0  0  0
    1.5423    0.4640   -2.6408 H   0  0  0  0  0  0  0  0  0  0  0  0
   -0.0705   -0.0056   -2.8235 H   0  0  0  0  0  0  0  0  0  0  0  0
   -0.1286   -1.8949    0.8017 H   0  0  0  0  0  0  0  0  0  0  0  0
   -0.3704    1.4150    1.6029 H   0  0  0  0  0  0  0  0  0  0  0  0
    0.4222    1.9183    0.0940 H   0  0  0  0  0  0  0  0  0  0  0  0
   -2.4395    1.9699    0.8805 H   0  0  0  0  0  0  0  0  0  0  0  0
   -1.5833    2.8161   -0.4298 H   0  0  0  0  0  0  0  0  0  0  0  0
   -3.2625    0.8611   -1.0197 H   0  0  0  0  0  0  0  0  0  0  0  0
   -1.7032   -1.1251   -1.3187 H   0  0  0  0  0  0  0  0  0  0  0  0
   -2.1148   -1.5147    1.2861 H   0  0  0  0  0  0  0  0  0  0  0  0
   -2.9878    0.0310    1.2247 H   0  0  0  0  0  0  0  0  0  0  0  0
   -3.5667   -1.3139    0.1896 H   0  0  0  0  0  0  0  0  0  0  0  0
  1  2  1  0
  2  3  1  0
  3  4  2  0
  3  5  1  0
  5  6  1  0
  5  7  1  0
  7  8  1  1
  7  9  1  0
  9 10  1  0
 10 11  1  0
 11 12  1  0
 12 13  1  0
 12  7  1  0
  1 14  1  0
  1 15  1  0
  1 16  1  0
  5 17  1  6
  6 18  1  0
  6 19  1  0
  8 20  1  0
  9 21  1  0
  9 22  1  0
 10 23  1  0
 10 24  1  0
 11 25  1  0
 12 26  1  6
 13 27  1  0
 13 28  1  0
 13 29  1  0
M  END
$$$$

     RDKit          3D

 29 29  0  0  0  0  0  0  0  0999 V2000
    4.1185   -0.0628    0.8482 C   0  0  0  0  0  0  0  0  0  0  0  0
    2.9790    0.3004    0.1069 O   0  0  0  0  0  0  0  0  0  0  0  0
    1.7863   -0.4085    0.1306 C   0  0  0  0  0  0  0  0  0  0  0  0
    1.7801   -1.4250    0.8744 O   0  0  0  0  0  0  0  0  0  0  0  0
    0.6892    0.0676   -0.6759 C   0  0  2  0  0  0  0  0  0  0  0  0
    1.0763    1.2635   -1.3932 N   0  0  0  0  0  0  0  0  0  0  0  0
   -0.5951    0.3392    0.0190 C   0  0  1  0  0  0  0  0  0  0  0  0
   -0.4096    1.3981    0.9024 O   0  0  0  0  0  0  0  0  0  0  0  0
   -1.5867    0.8026   -1.0325 C   0  0  0  0  0  0  0  0  0  0  0  0
   -2.4647   -0.4072   -1.2693 C   0  0  0  0  0  0  0  0  0  0  0  0
   -1.8724   -1.4963   -0.5241 N   0  0  0  0  0  0  0  0  0  0  0  0
   -1.2818   -0.8266    0.6098 C   0  0  2  0  0  0  0  0  0  0  0  0
   -2.3741   -0.3080    1.5510 C   0  0  0  0  0  0  0  0  0  0  0  0
    4.2078   -1.1546    1.0086 H   0  0  0  0  0  0  0  0  0  0  0  0
    4.2265    0.4939    1.7900 H   0  0  0  0  0  0  0  0  0  0  0  0
    5.0047    0.2082    0.2035 H   0  0  0  0  0  0  0  0  0  0  0  0
    0.4968   -0.7054   -1.4785 H   0  0  0  0  0  0  0  0  0  0  0  0
    1.1777    1.1356   -2.4059 H   0  0  0  0  0  0  0  0  0  0  0  0
    1.8883    1.7468   -0.9560 H   0  0  0  0  0  0  0  0  0  0  0  0
    0.0011    1.0858    1.7464 H   0  0  0  0  0  0  0  0  0  0  0  0
   -2.2065    1.6476   -0.6693 H   0  0  0  0  0  0  0  0  0  0  0  0
   -1.0682    1.1208   -1.9727 H   0  0  0  0  0  0  0  0  0  0  0  0
   -3.5194   -0.2246   -0.9689 H   0  0  0  0  0  0  0  0  0  0  0  0
   -2.5124   -0.6592   -2.3621 H   0  0  0  0  0  0  0  0  0  0  0  0
   -1.0927   -1.9185   -1.0753 H   0  0  0  0  0  0  0  0  0  0  0  0
   -0.6515   -1.4908    1.2246 H   0  0  0  0  0  0  0  0  0  0  0  0
   -3.1346    0.2731    1.0023 H   0  0  0  0  0  0  0  0  0  0  0  0
   -1.8862    0.3725    2.2705 H   0  0  0  0  0  0  0  0  0  0  0  0
   -2.7765   -1.1681    2.1030 H   0  0  0  0  0  0  0  0  0  0  0  0
  1  2  1  0
  2  3  1  0
  3  4  2  0
  3  5  1  0
  5  6  1  0
  5  7  1  0
  7  8  1  1
  7  9  1  0
  9 10  1  0
 10 11  1  0
 11 12  1  0
 12 13  1  0
 12  7  1  0
  1 14  1  0
  1 15  1  0
  1 16  1  0
  5 17  1  6
  6 18  1  0
  6 19  1  0
  8 20  1  0
  9 21  1  0
  9 22  1  0
 10 23  1  0
 10 24  1  0
 11 25  1  0
 12 26  1  1
 13 27  1  0
 13 28  1  0
 13 29  1  0
M  END
$$$$

     RDKit          3D

 29 29  0  0  0  0  0  0  0  0999 V2000
    3.5498   -0.9973   -0.3999 C   0  0  0  0  0  0  0  0  0  0  0  0
    2.2388   -0.5422   -0.6044 O   0  0  0  0  0  0  0  0  0  0  0  0
    1.8400    0.6474    0.0104 C   0  0  0  0  0  0  0  0  0  0  0  0
    2.7022    1.2506    0.7262 O   0  0  0  0  0  0  0  0  0  0  0  0
    0.4953    1.2261   -0.1281 C   0  0  2  0  0  0  0  0  0  0  0  0
    0.4810    2.4954    0.6117 N   0  0  0  0  0  0  0  0  0  0  0  0
   -0.5103    0.3109    0.5387 C   0  0  1  0  0  0  0  0  0  0  0  0
   -0.2072    0.0545    1.8581 O   0  0  0  0  0  0  0  0  0  0  0  0
   -1.9151    0.9286    0.4422 C   0  0  0  0  0  0  0  0  0  0  0  0
   -2.5855    0.2045   -0.6806 C   0  0  0  0  0  0  0  0  0  0  0  0
   -1.5451   -0.5883   -1.3194 N   0  0  0  0  0  0  0  0  0  0  0  0
   -0.7189   -0.9727   -0.1905 C   0  0  2  0  0  0  0  0  0  0  0  0
   -1.5413   -1.8816    0.7314 C   0  0  0  0  0  0  0  0  0  0  0  0
    3.9745   -1.3820   -1.3501 H   0  0  0  0  0  0  0  0  0  0  0  0
    4.1743   -0.2047    0.0273 H   0  0  0  0  0  0  0  0  0  0  0  0
    3.5494   -1.8686    0.3007 H   0  0  0  0  0  0  0  0  0  0  0  0
    0.2002    1.3976   -1.1628 H   0  0  0  0  0  0  0  0  0  0  0  0
    1.0289    2.3226    1.4940 H   0  0  0  0  0  0  0  0  0  0  0  0
    1.0228    3.1676    0.0248 H   0  0  0  0  0  0  0  0  0  0  0  0
    0.4274   -0.7172    1.8740 H   0  0  0  0  0  0  0  0  0  0  0  0
   -1.8465    2.0237    0.2549 H   0  0  0  0  0  0  0  0  0  0  0  0
   -2.4499    0.6980    1.3831 H   0  0  0  0  0  0  0  0  0  0  0  0
   -3.0727    0.8731   -1.4108 H   0  0  0  0  0  0  0  0  0  0  0  0
   -3.3670   -0.5140   -0.3426 H   0  0  0  0  0  0  0  0  0  0  0  0
   -0.9843   -0.0443   -1.9854 H   0  0  0  0  0  0  0  0  0  0  0  0
    0.1651   -1.5369   -0.4618 H   0  0  0  0  0  0  0  0  0  0  0  0
   -0.7997   -2.4654    1.3502 H   0  0  0  0  0  0  0  0  0  0  0  0
   -2.1639   -2.5706    0.1464 H   0  0  0  0  0  0  0  0  0  0  0  0
   -2.1425   -1.3147    1.4491 H   0  0  0  0  0  0  0  0  0  0  0  0
  1  2  1  0
  2  3  1  0
  3  4  2  0
  3  5  1  0
  5  6  1  0
  5  7  1  0
  7  8  1  1
  7  9  1  0
  9 10  1  0
 10 11  1  0
 11 12  1  0
 12 13  1  0
 12  7  1  0
  1 14  1  0
  1 15  1  0
  1 16  1  0
  5 17  1  6
  6 18  1  0
  6 19  1  0
  8 20  1  0
  9 21  1  0
  9 22  1  0
 10 23  1  0
 10 24  1  0
 11 25  1  0
 12 26  1  6
 13 27  1  0
 13 28  1  0
 13 29  1  0
M  END
$$$$

     RDKit          3D

 29 29  0  0  0  0  0  0  0  0999 V2000
    3.8038    1.4225    0.0940 C   0  0  0  0  0  0  0  0  0  0  0  0
    2.9091    0.3404    0.0986 O   0  0  0  0  0  0  0  0  0  0  0  0
    1.6370    0.3952    0.6481 C   0  0  0  0  0  0  0  0  0  0  0  0
    1.2914    1.4863    1.1642 O   0  0  0  0  0  0  0  0  0  0  0  0
    0.7013   -0.7309    0.6549 C   0  0  2  0  0  0  0  0  0  0  0  0
    1.2868   -1.9258    0.0273 N   0  0  0  0  0  0  0  0  0  0  0  0
   -0.5904   -0.4792   -0.0885 C   0  0  1  0  0  0  0  0  0  0  0  0
   -0.3683   -0.2592   -1.4450 O   0  0  0  0  0  0  0  0  0  0  0  0
   -1.4692   -1.6838    0.1701 C   0  0  0  0  0  0  0  0  0  0  0  0
   -2.8589   -1.1467    0.1935 C   0  0  0  0  0  0  0  0  0  0  0  0
   -2.7772    0.2761    0.2711 N   0  0  0  0  0  0  0  0  0  0  0  0
   -1.3954    0.6538    0.4658 C   0  0  2  0  0  0  0  0  0  0  0  0
   -1.1659    1.9510   -0.2728 C   0  0  0  0  0  0  0  0  0  0  0  0
    3.3243    2.4016    0.0779 H   0  0  0  0  0  0  0  0  0  0  0  0
    4.4438    1.3016   -0.8261 H   0  0  0  0  0  0  0  0  0  0  0  0
    4.5223    1.3958    0.9462 H   0  0  0  0  0  0  0  0  0  0  0  0
    0.4427   -1.0048    1.6853 H   0  0  0  0  0  0  0  0  0  0  0  0
    1.8950   -2.4472    0.7153 H   0  0  0  0  0  0  0  0  0  0  0  0
    1.9174   -1.5809   -0.7421 H   0  0  0  0  0  0  0  0  0  0  0  0
   -0.1997   -1.1314   -1.8868 H   0  0  0  0  0  0  0  0  0  0  0  0
   -1.3022   -2.4891   -0.5742 H   0  0  0  0  0  0  0  0  0  0  0  0
   -1.2440   -2.0538    1.2117 H   0  0  0  0  0  0  0  0  0  0  0  0
   -3.4683   -1.5605    1.0406 H   0  0  0  0  0  0  0  0  0  0  0  0
   -3.3809   -1.4918   -0.7358 H   0  0  0  0  0  0  0  0  0  0  0  0
   -3.4028    0.7000    0.9887 H   0  0  0  0  0  0  0  0  0  0  0  0
   -1.1442    0.7763    1.5448 H   0  0  0  0  0  0  0  0  0  0  0  0
   -0.9951    2.8120    0.4156 H   0  0  0  0  0  0  0  0  0  0  0  0
   -2.0714    2.2166   -0.8530 H   0  0  0  0  0  0  0  0  0  0  0  0
   -0.3410    1.8562   -1.0104 H   0  0  0  0  0  0  0  0  0  0  0  0
  1  2  1  0
  2  3  1  0
  3  4  2  0
  3  5  1  0
  5  6  1  0
  5  7  1  0
  7  8  1  6
  7  9  1  0
  9 10  1  0
 10 11  1  0
 11 12  1  0
 12 13  1  0
 12  7  1  0
  1 14  1  0
  1 15  1  0
  1 16  1  0
  5 17  1  1
  6 18  1  0
  6 19  1  0
  8 20  1  0
  9 21  1  0
  9 22  1  0
 10 23  1  0
 10 24  1  0
 11 25  1  0
 12 26  1  1
 13 27  1  0
 13 28  1  0
 13 29  1  0
M  END
$$$$

     RDKit          3D

 29 29  0  0  0  0  0  0  0  0999 V2000
    4.0637   -0.2828   -0.3458 C   0  0  0  0  0  0  0  0  0  0  0  0
    2.7515   -0.6399   -0.6928 O   0  0  0  0  0  0  0  0  0  0  0  0
    1.7137   -0.6167    0.2263 C   0  0  0  0  0  0  0  0  0  0  0  0
    1.9860   -0.2614    1.3964 O   0  0  0  0  0  0  0  0  0  0  0  0
    0.3474   -1.0029   -0.1914 C   0  0  2  0  0  0  0  0  0  0  0  0
    0.3348   -1.3604   -1.5766 N   0  0  0  0  0  0  0  0  0  0  0  0
   -0.5803    0.1161    0.1556 C   0  0  1  0  0  0  0  0  0  0  0  0
   -0.5017    0.3893    1.4992 O   0  0  0  0  0  0  0  0  0  0  0  0
   -0.3095    1.3846   -0.6042 C   0  0  0  0  0  0  0  0  0  0  0  0
   -1.6278    2.1179   -0.4670 C   0  0  0  0  0  0  0  0  0  0  0  0
   -2.5846    1.1598    0.0554 N   0  0  0  0  0  0  0  0  0  0  0  0
   -2.0066   -0.1463   -0.2898 C   0  0  2  0  0  0  0  0  0  0  0  0
   -2.6541   -1.2722    0.4282 C   0  0  0  0  0  0  0  0  0  0  0  0
    4.4933    0.2559   -1.2236 H   0  0  0  0  0  0  0  0  0  0  0  0
    4.1022    0.3970    0.5432 H   0  0  0  0  0  0  0  0  0  0  0  0
    4.6992   -1.1464   -0.0952 H   0  0  0  0  0  0  0  0  0  0  0  0
    0.0522   -1.8818    0.4171 H   0  0  0  0  0  0  0  0  0  0  0  0
    1.1850   -0.9229   -2.0413 H   0  0  0  0  0  0  0  0  0  0  0  0
    0.4947   -2.3920   -1.6462 H   0  0  0  0  0  0  0  0  0  0  0  0
    0.1295    1.1419    1.6235 H   0  0  0  0  0  0  0  0  0  0  0  0
   -0.1532    1.1801   -1.6946 H   0  0  0  0  0  0  0  0  0  0  0  0
    0.5312    1.9677   -0.1764 H   0  0  0  0  0  0  0  0  0  0  0  0
   -1.4478    2.9618    0.2516 H   0  0  0  0  0  0  0  0  0  0  0  0
   -1.9553    2.5270   -1.4405 H   0  0  0  0  0  0  0  0  0  0  0  0
   -2.4831    1.2126    1.1140 H   0  0  0  0  0  0  0  0  0  0  0  0
   -2.0545   -0.2231   -1.3798 H   0  0  0  0  0  0  0  0  0  0  0  0
   -2.4882   -2.2028   -0.1611 H   0  0  0  0  0  0  0  0  0  0  0  0
   -2.2834   -1.3547    1.4679 H   0  0  0  0  0  0  0  0  0  0  0  0
   -3.7544   -1.1055    0.4260 H   0  0  0  0  0  0  0  0  0  0  0  0
  1  2  1  0
  2  3  1  0
  3  4  2  0
  3  5  1  0
  5  6  1  0
  5  7  1  0
  7  8  1  1
  7  9  1  0
  9 10  1  0
 10 11  1  0
 11 12  1  0
 12 13  1  0
 12  7  1  0
  1 14  1  0
  1 15  1  0
  1 16  1  0
  5 17  1  1
  6 18  1  0
  6 19  1  0
  8 20  1  0
  9 21  1  0
  9 22  1  0
 10 23  1  0
 10 24  1  0
 11 25  1  0
 12 26  1  6
 13 27  1  0
 13 28  1  0
 13 29  1  0
M  END
$$$$
