
     RDKit          3D

 23 23  0  0  0  0  0  0  0  0999 V2000
    4.9363    0.2035   -0.5954 C   0  0  0  0  0  0  0  0  0  0  0  0
    3.6075    0.7077   -0.6652 O   0  0  0  0  0  0  0  0  0  0  0  0
    2.5243   -0.0906   -0.4246 C   0  0  0  0  0  0  0  0  0  0  0  0
    2.7140   -1.2979   -0.1353 O   0  0  0  0  0  0  0  0  0  0  0  0
    1.1441    0.3712   -0.4820 C   0  0  0  0  0  0  0  0  0  0  0  0
    0.9186    1.5701   -0.7679 O   0  0  0  0  0  0  0  0  0  0  0  0
    0.0368   -0.4780   -0.2277 N   0  0  0  0  0  0  0  0  0  0  0  0
   -1.3289   -0.0094   -0.2874 C   0  0  1  0  0  0  0  0  0  0  0  0
   -2.3856   -0.8826   -0.8489 C   0  0  0  0  0  0  0  0  0  0  0  0
   -2.3623   -0.5334    0.6275 C   0  0  2  0  0  0  0  0  0  0  0  0
   -3.4673    0.4232    1.0704 C   0  0  0  0  0  0  0  0  0  0  0  0
   -2.9050    1.5212    1.7458 O   0  0  0  0  0  0  0  0  0  0  0  0
    5.1957   -0.1098    0.4327 H   0  0  0  0  0  0  0  0  0  0  0  0
    5.1177   -0.5977   -1.3418 H   0  0  0  0  0  0  0  0  0  0  0  0
    5.6465    1.0267   -0.8606 H   0  0  0  0  0  0  0  0  0  0  0  0
    0.2784   -1.4810    0.0093 H   0  0  0  0  0  0  0  0  0  0  0  0
   -1.4189    1.0649   -0.5486 H   0  0  0  0  0  0  0  0  0  0  0  0
   -2.2286   -1.9431   -1.0609 H   0  0  0  0  0  0  0  0  0  0  0  0
   -3.1785   -0.4224   -1.4882 H   0  0  0  0  0  0  0  0  0  0  0  0
   -2.1636   -1.3294    1.3576 H   0  0  0  0  0  0  0  0  0  0  0  0
   -3.9966    0.8441    0.1792 H   0  0  0  0  0  0  0  0  0  0  0  0
   -4.1937   -0.0851    1.7318 H   0  0  0  0  0  0  0  0  0  0  0  0
   -2.4911    1.1426    2.5801 H   0  0  0  0  0  0  0  0  0  0  0  0
  1  2  1  0
  2  3  1  0
  3  4  2  0
  3  5  1  0
  5  6  2  0
  5  7  1  0
  7  8  1  0
  8  9  1  0
  9 10  1  0
 10 11  1  0
 11 12  1  0
 10  8  1  0
  1 13  1  0
  1 14  1  0
  1 15  1  0
  7 16  1  0
  8 17  1  6
  9 18  1  0
  9 19  1  0
 10 20  1  1
 11 21  1  0
 11 22  1  0
 12 23  1  0
M  END
$$$$

     RDKit          3D

 23 23  0  0  0  0  0  0  0  0999 V2000
    4.7557    1.3372   -0.3605 C   0  0  0  0  0  0  0  0  0  0  0  0
    3.3587    1.5509   -0.5457 O   0  0  0  0  0  0  0  0  0  0  0  0
    2.4988    0.5333   -0.1767 C   0  0  0  0  0  0  0  0  0  0  0  0
    2.9467   -0.5592    0.3130 O   0  0  0  0  0  0  0  0  0  0  0  0
    1.0744    0.6892   -0.3395 C   0  0  0  0  0  0  0  0  0  0  0  0
    0.6005    1.7330   -0.8104 O   0  0  0  0  0  0  0  0  0  0  0  0
    0.1693   -0.3407    0.0314 N   0  0  0  0  0  0  0  0  0  0  0  0
   -1.2509   -0.2484   -0.1043 C   0  0  1  0  0  0  0  0  0  0  0  0
   -1.9015   -1.5010   -0.6743 C   0  0  0  0  0  0  0  0  0  0  0  0
   -2.2111   -0.9957    0.7064 C   0  0  2  0  0  0  0  0  0  0  0  0
   -3.5966   -0.4077    0.8811 C   0  0  0  0  0  0  0  0  0  0  0  0
   -3.4973    0.8576    1.4998 O   0  0  0  0  0  0  0  0  0  0  0  0
    4.9744    0.3203   -0.0033 H   0  0  0  0  0  0  0  0  0  0  0  0
    5.2718    1.4795   -1.3457 H   0  0  0  0  0  0  0  0  0  0  0  0
    5.1727    2.1288    0.3048 H   0  0  0  0  0  0  0  0  0  0  0  0
    0.5781   -1.2143    0.4263 H   0  0  0  0  0  0  0  0  0  0  0  0
   -1.6077    0.7168   -0.5354 H   0  0  0  0  0  0  0  0  0  0  0  0
   -2.6614   -1.3803   -1.4759 H   0  0  0  0  0  0  0  0  0  0  0  0
   -1.3058   -2.4142   -0.7702 H   0  0  0  0  0  0  0  0  0  0  0  0
   -1.9211   -1.6642    1.5401 H   0  0  0  0  0  0  0  0  0  0  0  0
   -4.0623   -0.2317   -0.1193 H   0  0  0  0  0  0  0  0  0  0  0  0
   -4.2208   -1.0910    1.4884 H   0  0  0  0  0  0  0  0  0  0  0  0
   -3.1645    0.7018    2.4102 H   0  0  0  0  0  0  0  0  0  0  0  0
  1  2  1  0
  2  3  1  0
  3  4  2  0
  3  5  1  0
  5  6  2  0
  5  7  1  0
  7  8  1  0
  8  9  1  0
  9 10  1  0
 10 11  1  0
 11 12  1  0
 10  8  1  0
  1 13  1  0
  1 14  1  0
  1 15  1  0
  7 16  1  0
  8 17  1  6
  9 18  1  0
  9 19  1  0
 10 20  1  1
 11 21  1  0
 11 22  1  0
 12 23  1  0
M  END
$$$$

     RDKit          3D

 23 23  0  0  0  0  0  0  0  0999 V2000
    5.0210    0.7233    0.4388 C   0  0  0  0  0  0  0  0  0  0  0  0
    3.6449    0.9898    0.6377 O   0  0  0  0  0  0  0  0  0  0  0  0
    2.6413    0.2825    0.0174 C   0  0  0  0  0  0  0  0  0  0  0  0
    2.9344   -0.6428   -0.7622 O   0  0  0  0  0  0  0  0  0  0  0  0
    1.2616    0.6155    0.2728 C   0  0  0  0  0  0  0  0  0  0  0  0
    0.8879    1.5328    1.0442 O   0  0  0  0  0  0  0  0  0  0  0  0
    0.2107   -0.1203   -0.3728 N   0  0  0  0  0  0  0  0  0  0  0  0
   -1.1715    0.1728   -0.1514 C   0  0  1  0  0  0  0  0  0  0  0  0
   -2.0133    0.1285   -1.4273 C   0  0  0  0  0  0  0  0  0  0  0  0
   -2.2421   -0.8266   -0.3110 C   0  0  2  0  0  0  0  0  0  0  0  0
   -3.5154   -0.5772    0.4796 C   0  0  0  0  0  0  0  0  0  0  0  0
   -4.4641   -1.5611    0.2711 O   0  0  0  0  0  0  0  0  0  0  0  0
    5.2053    0.1456   -0.4862 H   0  0  0  0  0  0  0  0  0  0  0  0
    5.5921    1.6897    0.3602 H   0  0  0  0  0  0  0  0  0  0  0  0
    5.4279    0.1613    1.3123 H   0  0  0  0  0  0  0  0  0  0  0  0
    0.4558   -0.8952   -1.0258 H   0  0  0  0  0  0  0  0  0  0  0  0
   -1.3503    1.0150    0.5603 H   0  0  0  0  0  0  0  0  0  0  0  0
   -1.5657   -0.2858   -2.3415 H   0  0  0  0  0  0  0  0  0  0  0  0
   -2.6821    1.0005   -1.5892 H   0  0  0  0  0  0  0  0  0  0  0  0
   -2.0233   -1.8937   -0.4605 H   0  0  0  0  0  0  0  0  0  0  0  0
   -3.2317   -0.5162    1.5569 H   0  0  0  0  0  0  0  0  0  0  0  0
   -3.9604    0.4276    0.2254 H   0  0  0  0  0  0  0  0  0  0  0  0
   -5.0629   -1.5661    1.0551 H   0  0  0  0  0  0  0  0  0  0  0  0
  1  2  1  0
  2  3  1  0
  3  4  2  0
  3  5  1  0
  5  6  2  0
  5  7  1  0
  7  8  1  0
  8  9  1  0
  9 10  1  0
 10 11  1  0
 11 12  1  0
 10  8  1  0
  1 13  1  0
  1 14  1  0
  1 15  1  0
  7 16  1  0
  8 17  1  1
  9 18  1  0
  9 19  1  0
 10 20  1  6
 11 21  1  0
 11 22  1  0
 12 23  1  0
M  END
$$$$

     RDKit          3D

 23 23  0  0  0  0  0  0  0  0999 V2000
    5.0287   -0.6678    0.0725 C   0  0  0  0  0  0  0  0  0  0  0  0
    3.7184   -0.8818    0.5621 O   0  0  0  0  0  0  0  0  0  0  0  0
    2.6469   -0.1545    0.0739 C   0  0  0  0  0  0  0  0  0  0  0  0
    2.7931    0.7157   -0.8143 O   0  0  0  0  0  0  0  0  0  0  0  0
    1.3215   -0.3948    0.5925 C   0  0  0  0  0  0  0  0  0  0  0  0
    1.1263   -1.2600    1.4862 O   0  0  0  0  0  0  0  0  0  0  0  0
    0.1692    0.3173    0.1363 N   0  0  0  0  0  0  0  0  0  0  0  0
   -1.1525    0.0569    0.6739 C   0  0  1  0  0  0  0  0  0  0  0  0
   -2.0047    1.2766    0.8247 C   0  0  0  0  0  0  0  0  0  0  0  0
   -2.2984    0.2396   -0.2447 C   0  0  2  0  0  0  0  0  0  0  0  0
   -3.5820   -0.5083   -0.0518 C   0  0  0  0  0  0  0  0  0  0  0  0
   -4.4586   -0.1250   -1.0672 O   0  0  0  0  0  0  0  0  0  0  0  0
    5.7498   -0.7614    0.9088 H   0  0  0  0  0  0  0  0  0  0  0  0
    5.1258    0.3397   -0.3819 H   0  0  0  0  0  0  0  0  0  0  0  0
    5.2762   -1.4348   -0.6942 H   0  0  0  0  0  0  0  0  0  0  0  0
    0.3143    1.0385   -0.6050 H   0  0  0  0  0  0  0  0  0  0  0  0
   -1.1687   -0.7346    1.4570 H   0  0  0  0  0  0  0  0  0  0  0  0
   -2.6652    1.3278    1.7085 H   0  0  0  0  0  0  0  0  0  0  0  0
   -1.6177    2.2532    0.4687 H   0  0  0  0  0  0  0  0  0  0  0  0
   -2.0566    0.4758   -1.3008 H   0  0  0  0  0  0  0  0  0  0  0  0
   -4.0790   -0.2734    0.9297 H   0  0  0  0  0  0  0  0  0  0  0  0
   -3.3679   -1.6127   -0.1116 H   0  0  0  0  0  0  0  0  0  0  0  0
   -4.8191    0.7680   -0.7833 H   0  0  0  0  0  0  0  0  0  0  0  0
  1  2  1  0
  2  3  1  0
  3  4  2  0
  3  5  1  0
  5  6  2  0
  5  7  1  0
  7  8  1  0
  8  9  1  0
  9 10  1  0
 10 11  1  0
 11 12  1  0
 10  8  1  0
  1 13  1  0
  1 14  1  0
  1 15  1  0
  7 16  1  0
  8 17  1  1
  9 18  1  0
  9 19  1  0
 10 20  1  6
 11 21  1  0
 11 22  1  0
 12 23  1  0
M  END
$$$$

     RDKit          3D

 23 23  0  0  0  0  0  0  0  0999 V2000
    4.8669    0.9147   -0.7154 C   0  0  0  0  0  0  0  0  0  0  0  0
    3.5504    0.6260   -1.2003 O   0  0  0  0  0  0  0  0  0  0  0  0
    2.5542    0.2110   -0.3433 C   0  0  0  0  0  0  0  0  0  0  0  0
    2.8281    0.0913    0.8765 O   0  0  0  0  0  0  0  0  0  0  0  0
    1.1960   -0.0946   -0.7950 C   0  0  0  0  0  0  0  0  0  0  0  0
    0.8694    0.0110   -2.0178 O   0  0  0  0  0  0  0  0  0  0  0  0
    0.1817   -0.5192    0.0898 N   0  0  0  0  0  0  0  0  0  0  0  0
   -1.1659   -0.8345   -0.2831 C   0  0  1  0  0  0  0  0  0  0  0  0
   -2.0179   -1.7548    0.4765 C   0  0  0  0  0  0  0  0  0  0  0  0
   -2.2248   -0.2989    0.7045 C   0  0  2  0  0  0  0  0  0  0  0  0
   -3.4269    0.3906    0.0994 C   0  0  0  0  0  0  0  0  0  0  0  0
   -4.2592    0.7992    1.1399 O   0  0  0  0  0  0  0  0  0  0  0  0
    5.5311    0.1086   -1.0250 H   0  0  0  0  0  0  0  0  0  0  0  0
    4.8119    0.9707    0.4006 H   0  0  0  0  0  0  0  0  0  0  0  0
    5.1424    1.9071   -1.1103 H   0  0  0  0  0  0  0  0  0  0  0  0
    0.4423   -0.6102    1.1072 H   0  0  0  0  0  0  0  0  0  0  0  0
   -1.3841   -0.7211   -1.3665 H   0  0  0  0  0  0  0  0  0  0  0  0
   -1.6686   -2.3344    1.3481 H   0  0  0  0  0  0  0  0  0  0  0  0
   -2.8453   -2.2577   -0.0674 H   0  0  0  0  0  0  0  0  0  0  0  0
   -1.8650    0.1259    1.6508 H   0  0  0  0  0  0  0  0  0  0  0  0
   -3.1746    1.2415   -0.5364 H   0  0  0  0  0  0  0  0  0  0  0  0
   -3.9997   -0.4051   -0.4556 H   0  0  0  0  0  0  0  0  0  0  0  0
   -3.9424    0.4575    2.0228 H   0  0  0  0  0  0  0  0  0  0  0  0
  1  2  1  0
  2  3  1  0
  3  4  2  0
  3  5  1  0
  5  6  2  0
  5  7  1  0
  7  8  1  0
  8  9  1  0
  9 10  1  0
 10 11  1  0
 11 12  1  0
 10  8  1  0
  1 13  1  0
  1 14  1  0
  1 15  1  0
  7 16  1  0
  8 17  1  6
  9 18  1  0
  9 19  1  0
 10 20  1  1
 11 21  1  0
 11 22  1  0
 12 23  1  0
M  END
$$$$

     RDKit          3D

 23 23  0  0  0  0  0  0  0  0999 V2000
    4.9331   -0.6530    0.6631 C   0  0  0  0  0  0  0  0  0  0  0  0
    3.5600   -1.0022    0.6353 O   0  0  0  0  0  0  0  0  0  0  0  0
    2.5500   -0.1110    0.3671 C   0  0  0  0  0  0  0  0  0  0  0  0
    2.8251    1.0914    0.1284 O   0  0  0  0  0  0  0  0  0  0  0  0
    1.1490   -0.5038    0.3467 C   0  0  0  0  0  0  0  0  0  0  0  0
    0.8017   -1.6976    0.5781 O   0  0  0  0  0  0  0  0  0  0  0  0
    0.1118    0.4175    0.0701 N   0  0  0  0  0  0  0  0  0  0  0  0
   -1.2671   -0.0070    0.0581 C   0  0  1  0  0  0  0  0  0  0  0  0
   -2.2309    1.0064    0.6384 C   0  0  0  0  0  0  0  0  0  0  0  0
   -2.2323    0.7091   -0.7990 C   0  0  2  0  0  0  0  0  0  0  0  0
   -3.4062   -0.0704   -1.3925 C   0  0  0  0  0  0  0  0  0  0  0  0
   -4.1288   -0.5730   -0.3132 O   0  0  0  0  0  0  0  0  0  0  0  0
    5.1099    0.1846   -0.0449 H   0  0  0  0  0  0  0  0  0  0  0  0
    5.5087   -1.5678    0.3916 H   0  0  0  0  0  0  0  0  0  0  0  0
    5.1808   -0.2986    1.6802 H   0  0  0  0  0  0  0  0  0  0  0  0
    0.3731    1.4053   -0.1234 H   0  0  0  0  0  0  0  0  0  0  0  0
   -1.4430   -1.0846    0.2774 H   0  0  0  0  0  0  0  0  0  0  0  0
   -1.8399    1.9990    0.9552 H   0  0  0  0  0  0  0  0  0  0  0  0
   -3.0209    0.6030    1.3198 H   0  0  0  0  0  0  0  0  0  0  0  0
   -1.8099    1.4522   -1.5016 H   0  0  0  0  0  0  0  0  0  0  0  0
   -2.9933   -0.8865   -2.0344 H   0  0  0  0  0  0  0  0  0  0  0  0
   -4.0720    0.5986   -1.9682 H   0  0  0  0  0  0  0  0  0  0  0  0
   -3.6588   -1.3799    0.0680 H   0  0  0  0  0  0  0  0  0  0  0  0
  1  2  1  0
  2  3  1  0
  3  4  2  0
  3  5  1  0
  5  6  2  0
  5  7  1  0
  7  8  1  0
  8  9  1  0
  9 10  1  0
 10 11  1  0
 11 12  1  0
 10  8  1  0
  1 13  1  0
  1 14  1  0
  1 15  1  0
  7 16  1  0
  8 17  1  1
  9 18  1  0
  9 19  1  0
 10 20  1  6
 11 21  1  0
 11 22  1  0
 12 23  1  0
M  END
$$$$

     RDKit          3D

 23 23  0  0  0  0  0  0  0  0999 V2000
   -4.8324    0.2729   -1.4516 C   0  0  0  0  0  0  0  0  0  0  0  0
   -3.5492    0.8027   -1.1827 O   0  0  0  0  0  0  0  0  0  0  0  0
   -2.5439   -0.0008   -0.6824 C   0  0  0  0  0  0  0  0  0  0  0  0
   -2.7792   -1.2137   -0.4664 O   0  0  0  0  0  0  0  0  0  0  0  0
   -1.2357    0.5815   -0.4183 C   0  0  0  0  0  0  0  0  0  0  0  0
   -0.9738    1.7924   -0.6256 O   0  0  0  0  0  0  0  0  0  0  0  0
   -0.1536   -0.2071    0.1021 N   0  0  0  0  0  0  0  0  0  0  0  0
    1.1421    0.3937    0.3579 C   0  0  1  0  0  0  0  0  0  0  0  0
    1.7851   -0.0456    1.7113 C   0  0  0  0  0  0  0  0  0  0  0  0
    2.3662   -0.4347    0.4132 C   0  0  2  0  0  0  0  0  0  0  0  0
    3.6506    0.2461    0.0259 C   0  0  0  0  0  0  0  0  0  0  0  0
    3.9100    1.3311    0.8591 O   0  0  0  0  0  0  0  0  0  0  0  0
   -4.9201   -0.7131   -0.9577 H   0  0  0  0  0  0  0  0  0  0  0  0
   -5.6413    0.9200   -1.0548 H   0  0  0  0  0  0  0  0  0  0  0  0
   -4.9327    0.0891   -2.5399 H   0  0  0  0  0  0  0  0  0  0  0  0
   -0.3451   -1.2213    0.2843 H   0  0  0  0  0  0  0  0  0  0  0  0
    1.2120    1.4629    0.1253 H   0  0  0  0  0  0  0  0  0  0  0  0
    2.1849    0.7848    2.3214 H   0  0  0  0  0  0  0  0  0  0  0  0
    1.2362   -0.7954    2.2953 H   0  0  0  0  0  0  0  0  0  0  0  0
    2.2930   -1.4858    0.0968 H   0  0  0  0  0  0  0  0  0  0  0  0
    3.5229    0.6390   -1.0029 H   0  0  0  0  0  0  0  0  0  0  0  0
    4.4750   -0.4910    0.0119 H   0  0  0  0  0  0  0  0  0  0  0  0
    4.1290    1.0853    1.7778 H   0  0  0  0  0  0  0  0  0  0  0  0
  1  2  1  0
  2  3  1  0
  3  4  2  0
  3  5  1  0
  5  6  2  0
  5  7  1  0
  7  8  1  0
  8  9  1  0
  9 10  1  0
 10 11  1  0
 11 12  1  0
 10  8  1  0
  1 13  1  0
  1 14  1  0
  1 15  1  0
  7 16  1  0
  8 17  1  1
  9 18  1  0
  9 19  1  0
 10 20  1  6
 11 21  1  0
 11 22  1  0
 12 23  1  0
M  END
$$$$

     RDKit          3D

 23 23  0  0  0  0  0  0  0  0999 V2000
    4.7612   -0.5809   -1.2817 C   0  0  0  0  0  0  0  0  0  0  0  0
    3.3991   -0.9779   -1.0869 O   0  0  0  0  0  0  0  0  0  0  0  0
    2.5072   -0.2087   -0.3593 C   0  0  0  0  0  0  0  0  0  0  0  0
    2.9390    0.8619    0.1299 O   0  0  0  0  0  0  0  0  0  0  0  0
    1.1384   -0.6640   -0.1963 C   0  0  0  0  0  0  0  0  0  0  0  0
    0.7060   -1.7378   -0.6872 O   0  0  0  0  0  0  0  0  0  0  0  0
    0.1735    0.0993    0.5508 N   0  0  0  0  0  0  0  0  0  0  0  0
   -1.1939   -0.3609    0.7104 C   0  0  1  0  0  0  0  0  0  0  0  0
   -1.9871   -0.0049    1.9005 C   0  0  0  0  0  0  0  0  0  0  0  0
   -2.2222    0.7463    0.6240 C   0  0  2  0  0  0  0  0  0  0  0  0
   -3.5114    0.5044   -0.0852 C   0  0  0  0  0  0  0  0  0  0  0  0
   -3.2719    0.1730   -1.4156 O   0  0  0  0  0  0  0  0  0  0  0  0
    4.9884    0.1207   -0.4446 H   0  0  0  0  0  0  0  0  0  0  0  0
    5.4121   -1.4760   -1.2576 H   0  0  0  0  0  0  0  0  0  0  0  0
    4.8321    0.0006   -2.2133 H   0  0  0  0  0  0  0  0  0  0  0  0
    0.4829    1.0019    0.9802 H   0  0  0  0  0  0  0  0  0  0  0  0
   -1.4210   -1.3312    0.2157 H   0  0  0  0  0  0  0  0  0  0  0  0
   -1.5852    0.5767    2.7358 H   0  0  0  0  0  0  0  0  0  0  0  0
   -2.7865   -0.7126    2.2009 H   0  0  0  0  0  0  0  0  0  0  0  0
   -1.8597    1.7970    0.5874 H   0  0  0  0  0  0  0  0  0  0  0  0
   -4.0972    1.4458   -0.0773 H   0  0  0  0  0  0  0  0  0  0  0  0
   -4.1361   -0.2632    0.4187 H   0  0  0  0  0  0  0  0  0  0  0  0
   -3.2677    0.9905   -1.9494 H   0  0  0  0  0  0  0  0  0  0  0  0
  1  2  1  0
  2  3  1  0
  3  4  2  0
  3  5  1  0
  5  6  2  0
  5  7  1  0
  7  8  1  0
  8  9  1  0
  9 10  1  0
 10 11  1  0
 11 12  1  0
 10  8  1  0
  1 13  1  0
  1 14  1  0
  1 15  1  0
  7 16  1  0
  8 17  1  6
  9 18  1  0
  9 19  1  0
 10 20  1  1
 11 21  1  0
 11 22  1  0
 12 23  1  0
M  END
$$$$
