
     RDKit          3D

 27 27  0  0  0  0  0  0  0  0999 V2000
    1.9263    0.6287   -1.4391 N   0  0  0  0  0  0  0  0  0  0  0  0
    1.8597   -0.1411   -0.4079 C   0  0  0  0  0  0  0  0  0  0  0  0
    2.7169   -1.2937   -0.2723 N   0  0  0  0  0  0  0  0  0  0  0  0
    3.8958   -1.3639   -1.0500 N   0  0  0  0  0  0  0  0  0  0  0  0
    0.9068    0.1848    0.5996 N   0  0  0  0  0  0  0  0  0  0  0  0
   -0.1584    1.1018    0.3473 C   0  0  2  0  0  0  0  0  0  0  0  0
   -0.9971    1.2317    1.6263 C   0  0  0  0  0  0  0  0  0  0  0  0
   -1.8126   -0.0518    1.5565 C   0  0  2  0  0  0  0  0  0  0  0  0
   -1.0873   -1.1590    1.9467 O   0  0  0  0  0  0  0  0  0  0  0  0
   -2.1782   -0.2091    0.1006 C   0  0  1  0  0  0  0  0  0  0  0  0
   -3.4869    0.2148   -0.1206 O   0  0  0  0  0  0  0  0  0  0  0  0
   -1.1679    0.6468   -0.6400 C   0  0  2  0  0  0  0  0  0  0  0  0
   -0.6624    0.0198   -1.7524 O   0  0  0  0  0  0  0  0  0  0  0  0
    2.6242    0.3903   -2.1774 H   0  0  0  0  0  0  0  0  0  0  0  0
    2.4596   -2.0562    0.3925 H   0  0  0  0  0  0  0  0  0  0  0  0
    4.5574   -1.9973   -0.5208 H   0  0  0  0  0  0  0  0  0  0  0  0
    4.3906   -0.4256   -1.0491 H   0  0  0  0  0  0  0  0  0  0  0  0
    1.0396   -0.2871    1.5227 H   0  0  0  0  0  0  0  0  0  0  0  0
    0.1751    2.1353    0.1144 H   0  0  0  0  0  0  0  0  0  0  0  0
   -0.3321    1.2579    2.5062 H   0  0  0  0  0  0  0  0  0  0  0  0
   -1.7000    2.0683    1.5620 H   0  0  0  0  0  0  0  0  0  0  0  0
   -2.7337    0.0213    2.1915 H   0  0  0  0  0  0  0  0  0  0  0  0
   -1.1732   -1.9291    1.3084 H   0  0  0  0  0  0  0  0  0  0  0  0
   -2.0887   -1.2590   -0.2463 H   0  0  0  0  0  0  0  0  0  0  0  0
   -3.8620    0.6510    0.6987 H   0  0  0  0  0  0  0  0  0  0  0  0
   -1.7408    1.5578   -0.9805 H   0  0  0  0  0  0  0  0  0  0  0  0
   -1.3710    0.0626   -2.4657 H   0  0  0  0  0  0  0  0  0  0  0  0
  1  2  2  3
  2  3  1  0
  3  4  1  0
  2  5  1  0
  5  6  1  0
  6  7  1  0
  7  8  1  0
  8  9  1  0
  8 10  1  0
 10 11  1  0
 10 12  1  0
 12 13  1  0
 12  6  1  0
  1 14  1  0
  3 15  1  0
  4 16  1  0
  4 17  1  0
  5 18  1  0
  6 19  1  6
  7 20  1  0
  7 21  1  0
  8 22  1  1
  9 23  1  0
 10 24  1  6
 11 25  1  0
 12 26  1  6
 13 27  1  0
M  END
$$$$

     RDKit          3D

 27 27  0  0  0  0  0  0  0  0999 V2000
    2.0984    1.0394    0.8204 N   0  0  0  0  0  0  0  0  0  0  0  0
    2.1176   -0.0181    0.1154 C   0  0  0  0  0  0  0  0  0  0  0  0
    3.2890   -0.3744   -0.5890 N   0  0  0  0  0  0  0  0  0  0  0  0
    4.5105    0.2298   -0.3224 N   0  0  0  0  0  0  0  0  0  0  0  0
    0.9388   -0.8277    0.0540 N   0  0  0  0  0  0  0  0  0  0  0  0
   -0.3131   -0.2292    0.4184 C   0  0  2  0  0  0  0  0  0  0  0  0
   -1.4359   -1.2530    0.2857 C   0  0  0  0  0  0  0  0  0  0  0  0
   -2.6503   -0.3623    0.3936 C   0  0  2  0  0  0  0  0  0  0  0  0
   -3.7850   -1.0008   -0.1131 O   0  0  0  0  0  0  0  0  0  0  0  0
   -2.2642    0.8127   -0.4764 C   0  0  1  0  0  0  0  0  0  0  0  0
   -2.7529    2.0074    0.0598 O   0  0  0  0  0  0  0  0  0  0  0  0
   -0.7626    0.8331   -0.5458 C   0  0  2  0  0  0  0  0  0  0  0  0
   -0.2905    0.5391   -1.8414 O   0  0  0  0  0  0  0  0  0  0  0  0
    2.9162    1.6553    0.8989 H   0  0  0  0  0  0  0  0  0  0  0  0
    3.2139   -1.1215   -1.3338 H   0  0  0  0  0  0  0  0  0  0  0  0
    5.0362    0.4765   -1.1958 H   0  0  0  0  0  0  0  0  0  0  0  0
    5.1038   -0.4947    0.1648 H   0  0  0  0  0  0  0  0  0  0  0  0
    1.0197   -1.8055   -0.2462 H   0  0  0  0  0  0  0  0  0  0  0  0
   -0.2617    0.1706    1.4509 H   0  0  0  0  0  0  0  0  0  0  0  0
   -1.3378   -1.6769   -0.7502 H   0  0  0  0  0  0  0  0  0  0  0  0
   -1.3813   -2.0198    1.0541 H   0  0  0  0  0  0  0  0  0  0  0  0
   -2.7632   -0.0787    1.4415 H   0  0  0  0  0  0  0  0  0  0  0  0
   -3.9865   -1.7432    0.4909 H   0  0  0  0  0  0  0  0  0  0  0  0
   -2.7233    0.6508   -1.4772 H   0  0  0  0  0  0  0  0  0  0  0  0
   -2.2163    2.7747   -0.3012 H   0  0  0  0  0  0  0  0  0  0  0  0
   -0.3592    1.8099   -0.1860 H   0  0  0  0  0  0  0  0  0  0  0  0
   -0.9603    0.0065   -2.3224 H   0  0  0  0  0  0  0  0  0  0  0  0
  1  2  2  3
  2  3  1  0
  3  4  1  0
  2  5  1  0
  5  6  1  0
  6  7  1  0
  7  8  1  0
  8  9  1  0
  8 10  1  0
 10 11  1  0
 10 12  1  0
 12 13  1  0
 12  6  1  0
  1 14  1  0
  3 15  1  0
  4 16  1  0
  4 17  1  0
  5 18  1  0
  6 19  1  1
  7 20  1  0
  7 21  1  0
  8 22  1  1
  9 23  1  0
 10 24  1  6
 11 25  1  0
 12 26  1  1
 13 27  1  0
M  END
$$$$

     RDKit          3D

 27 27  0  0  0  0  0  0  0  0999 V2000
    1.9985   -1.2450    0.9349 N   0  0  0  0  0  0  0  0  0  0  0  0
    2.0700   -0.0738    0.4058 C   0  0  0  0  0  0  0  0  0  0  0  0
    3.2485    0.4612   -0.1784 N   0  0  0  0  0  0  0  0  0  0  0  0
    4.4324   -0.2663   -0.1234 N   0  0  0  0  0  0  0  0  0  0  0  0
    0.9055    0.7545    0.3947 N   0  0  0  0  0  0  0  0  0  0  0  0
   -0.3582    0.1569    0.7141 C   0  0  2  0  0  0  0  0  0  0  0  0
   -0.7333   -0.9598   -0.2301 C   0  0  0  0  0  0  0  0  0  0  0  0
   -2.1867   -0.7471   -0.5997 C   0  0  2  0  0  0  0  0  0  0  0  0
   -2.2317   -0.2221   -1.9055 O   0  0  0  0  0  0  0  0  0  0  0  0
   -2.6682    0.3156    0.3691 C   0  0  1  0  0  0  0  0  0  0  0  0
   -2.9249   -0.3240    1.5756 O   0  0  0  0  0  0  0  0  0  0  0  0
   -1.4375    1.1872    0.4542 C   0  0  2  0  0  0  0  0  0  0  0  0
   -1.2068    1.7196   -0.8068 O   0  0  0  0  0  0  0  0  0  0  0  0
    2.7822   -1.9019    0.9855 H   0  0  0  0  0  0  0  0  0  0  0  0
    3.2748    1.3909   -0.6571 H   0  0  0  0  0  0  0  0  0  0  0  0
    5.2599    0.3645   -0.2214 H   0  0  0  0  0  0  0  0  0  0  0  0
    4.5041   -0.8329    0.7551 H   0  0  0  0  0  0  0  0  0  0  0  0
    1.0054    1.7773    0.1535 H   0  0  0  0  0  0  0  0  0  0  0  0
   -0.4147   -0.2111    1.7592 H   0  0  0  0  0  0  0  0  0  0  0  0
   -0.6882   -1.9402    0.3270 H   0  0  0  0  0  0  0  0  0  0  0  0
   -0.0748   -1.0439   -1.0961 H   0  0  0  0  0  0  0  0  0  0  0  0
   -2.7658   -1.6838   -0.5207 H   0  0  0  0  0  0  0  0  0  0  0  0
   -2.9613    0.4405   -2.0116 H   0  0  0  0  0  0  0  0  0  0  0  0
   -3.5512    0.8563   -0.0181 H   0  0  0  0  0  0  0  0  0  0  0  0
   -3.3254   -1.2055    1.4053 H   0  0  0  0  0  0  0  0  0  0  0  0
   -1.5037    1.9515    1.2483 H   0  0  0  0  0  0  0  0  0  0  0  0
   -0.4489    1.2813   -1.2790 H   0  0  0  0  0  0  0  0  0  0  0  0
  1  2  2  3
  2  3  1  0
  3  4  1  0
  2  5  1  0
  5  6  1  0
  6  7  1  0
  7  8  1  0
  8  9  1  0
  8 10  1  0
 10 11  1  0
 10 12  1  0
 12 13  1  0
 12  6  1  0
  1 14  1  0
  3 15  1  0
  4 16  1  0
  4 17  1  0
  5 18  1  0
  6 19  1  1
  7 20  1  0
  7 21  1  0
  8 22  1  6
  9 23  1  0
 10 24  1  6
 11 25  1  0
 12 26  1  1
 13 27  1  0
M  END
$$$$

     RDKit          3D

 27 27  0  0  0  0  0  0  0  0999 V2000
    1.5701    0.1173    1.2790 N   0  0  0  0  0  0  0  0  0  0  0  0
    1.9743    0.3672    0.0995 C   0  0  0  0  0  0  0  0  0  0  0  0
    3.3560    0.1634   -0.1925 N   0  0  0  0  0  0  0  0  0  0  0  0
    4.2144   -0.5548    0.6478 N   0  0  0  0  0  0  0  0  0  0  0  0
    1.0434    0.8313   -0.8590 N   0  0  0  0  0  0  0  0  0  0  0  0
   -0.3531    0.6317   -0.7535 C   0  0  2  0  0  0  0  0  0  0  0  0
   -1.0180    1.2155    0.4500 C   0  0  0  0  0  0  0  0  0  0  0  0
   -2.4469    0.6869    0.2545 C   0  0  2  0  0  0  0  0  0  0  0  0
   -3.2133    0.8602    1.3769 O   0  0  0  0  0  0  0  0  0  0  0  0
   -2.1531   -0.7751   -0.0473 C   0  0  1  0  0  0  0  0  0  0  0  0
   -3.1310   -1.3641   -0.8162 O   0  0  0  0  0  0  0  0  0  0  0  0
   -0.7893   -0.8081   -0.7059 C   0  0  2  0  0  0  0  0  0  0  0  0
    0.0966   -1.6488   -0.0886 O   0  0  0  0  0  0  0  0  0  0  0  0
    2.1778   -0.2280    2.0547 H   0  0  0  0  0  0  0  0  0  0  0  0
    3.7020    0.5909   -1.0922 H   0  0  0  0  0  0  0  0  0  0  0  0
    4.0929   -1.5730    0.4876 H   0  0  0  0  0  0  0  0  0  0  0  0
    4.1820   -0.2577    1.6311 H   0  0  0  0  0  0  0  0  0  0  0  0
    1.4389    1.3537   -1.6917 H   0  0  0  0  0  0  0  0  0  0  0  0
   -0.8832    1.0778   -1.6480 H   0  0  0  0  0  0  0  0  0  0  0  0
   -0.6882    0.8347    1.4130 H   0  0  0  0  0  0  0  0  0  0  0  0
   -1.0839    2.3186    0.4281 H   0  0  0  0  0  0  0  0  0  0  0  0
   -2.9001    1.1829   -0.6073 H   0  0  0  0  0  0  0  0  0  0  0  0
   -3.0177    1.7562    1.7468 H   0  0  0  0  0  0  0  0  0  0  0  0
   -2.1154   -1.3116    0.9380 H   0  0  0  0  0  0  0  0  0  0  0  0
   -2.7028   -2.1036   -1.3233 H   0  0  0  0  0  0  0  0  0  0  0  0
   -0.9245   -1.1719   -1.7659 H   0  0  0  0  0  0  0  0  0  0  0  0
   -0.4279   -2.1916    0.5817 H   0  0  0  0  0  0  0  0  0  0  0  0
  1  2  2  3
  2  3  1  0
  3  4  1  0
  2  5  1  0
  5  6  1  0
  6  7  1  0
  7  8  1  0
  8  9  1  0
  8 10  1  0
 10 11  1  0
 10 12  1  0
 12 13  1  0
 12  6  1  0
  1 14  1  0
  3 15  1  0
  4 16  1  0
  4 17  1  0
  5 18  1  0
  6 19  1  6
  7 20  1  0
  7 21  1  0
  8 22  1  6
  9 23  1  0
 10 24  1  1
 11 25  1  0
 12 26  1  6
 13 27  1  0
M  END
$$$$

     RDKit          3D

 27 27  0  0  0  0  0  0  0  0999 V2000
    1.5781   -1.0908    0.7653 N   0  0  0  0  0  0  0  0  0  0  0  0
    1.9596   -0.1177    0.0254 C   0  0  0  0  0  0  0  0  0  0  0  0
    3.1655   -0.2505   -0.7507 N   0  0  0  0  0  0  0  0  0  0  0  0
    3.7818   -1.4949   -0.8780 N   0  0  0  0  0  0  0  0  0  0  0  0
    1.1836    1.0580   -0.0031 N   0  0  0  0  0  0  0  0  0  0  0  0
   -0.2136    1.0432    0.1464 C   0  0  2  0  0  0  0  0  0  0  0  0
   -0.7643    0.4905    1.4259 C   0  0  0  0  0  0  0  0  0  0  0  0
   -2.2714    0.5923    1.1233 C   0  0  2  0  0  0  0  0  0  0  0  0
   -2.9445   -0.4125    1.8125 O   0  0  0  0  0  0  0  0  0  0  0  0
   -2.3926    0.4286   -0.3786 C   0  0  1  0  0  0  0  0  0  0  0  0
   -2.7579    1.6486   -0.9445 O   0  0  0  0  0  0  0  0  0  0  0  0
   -0.9588    0.1543   -0.8602 C   0  0  2  0  0  0  0  0  0  0  0  0
   -0.6965   -1.1728   -0.6271 O   0  0  0  0  0  0  0  0  0  0  0  0
    2.1475   -1.9592    0.7913 H   0  0  0  0  0  0  0  0  0  0  0  0
    3.5581    0.5922   -1.2057 H   0  0  0  0  0  0  0  0  0  0  0  0
    4.3241   -1.6027   -1.7508 H   0  0  0  0  0  0  0  0  0  0  0  0
    4.3583   -1.7080   -0.0241 H   0  0  0  0  0  0  0  0  0  0  0  0
    1.6834    1.9693   -0.1441 H   0  0  0  0  0  0  0  0  0  0  0  0
   -0.6282    2.0695   -0.0028 H   0  0  0  0  0  0  0  0  0  0  0  0
   -0.5926   -0.5933    1.5224 H   0  0  0  0  0  0  0  0  0  0  0  0
   -0.5031    1.0829    2.3051 H   0  0  0  0  0  0  0  0  0  0  0  0
   -2.5854    1.5925    1.4288 H   0  0  0  0  0  0  0  0  0  0  0  0
   -3.8726   -0.1090    1.9688 H   0  0  0  0  0  0  0  0  0  0  0  0
   -3.0664   -0.3913   -0.6617 H   0  0  0  0  0  0  0  0  0  0  0  0
   -2.2348    1.8469   -1.7606 H   0  0  0  0  0  0  0  0  0  0  0  0
   -0.8031    0.4911   -1.8858 H   0  0  0  0  0  0  0  0  0  0  0  0
   -0.4544   -1.6895   -1.4374 H   0  0  0  0  0  0  0  0  0  0  0  0
  1  2  2  3
  2  3  1  0
  3  4  1  0
  2  5  1  0
  5  6  1  0
  6  7  1  0
  7  8  1  0
  8  9  1  0
  8 10  1  0
 10 11  1  0
 10 12  1  0
 12 13  1  0
 12  6  1  0
  1 14  1  0
  3 15  1  0
  4 16  1  0
  4 17  1  0
  5 18  1  0
  6 19  1  6
  7 20  1  0
  7 21  1  0
  8 22  1  1
  9 23  1  0
 10 24  1  1
 11 25  1  0
 12 26  1  6
 13 27  1  0
M  END
$$$$

     RDKit          3D

 27 27  0  0  0  0  0  0  0  0999 V2000
    2.4206    0.7457    0.9233 N   0  0  0  0  0  0  0  0  0  0  0  0
    2.1737   -0.0031   -0.0855 C   0  0  0  0  0  0  0  0  0  0  0  0
    3.1300   -0.9835   -0.4688 N   0  0  0  0  0  0  0  0  0  0  0  0
    4.4382   -0.9899   -0.0324 N   0  0  0  0  0  0  0  0  0  0  0  0
    0.9491    0.1797   -0.7803 N   0  0  0  0  0  0  0  0  0  0  0  0
   -0.1214    0.8985   -0.1505 C   0  0  2  0  0  0  0  0  0  0  0  0
   -0.5763    0.2474    1.1399 C   0  0  0  0  0  0  0  0  0  0  0  0
   -2.0313   -0.1077    0.9199 C   0  0  2  0  0  0  0  0  0  0  0  0
   -2.4332   -1.1854    1.6869 O   0  0  0  0  0  0  0  0  0  0  0  0
   -2.0123   -0.4261   -0.5611 C   0  0  1  0  0  0  0  0  0  0  0  0
   -3.2595   -0.6073   -1.0957 O   0  0  0  0  0  0  0  0  0  0  0  0
   -1.3520    0.8615   -1.0660 C   0  0  2  0  0  0  0  0  0  0  0  0
   -1.0048    0.7896   -2.3885 O   0  0  0  0  0  0  0  0  0  0  0  0
    1.7700    1.4689    1.2463 H   0  0  0  0  0  0  0  0  0  0  0  0
    2.8052   -1.7331   -1.1179 H   0  0  0  0  0  0  0  0  0  0  0  0
    4.8966   -0.0655   -0.0411 H   0  0  0  0  0  0  0  0  0  0  0  0
    4.5728   -1.4016    0.9176 H   0  0  0  0  0  0  0  0  0  0  0  0
    0.8592   -0.2157   -1.7363 H   0  0  0  0  0  0  0  0  0  0  0  0
    0.1278    1.9565    0.0672 H   0  0  0  0  0  0  0  0  0  0  0  0
   -0.4406    0.9281    2.0082 H   0  0  0  0  0  0  0  0  0  0  0  0
   -0.0239   -0.7082    1.2569 H   0  0  0  0  0  0  0  0  0  0  0  0
   -2.6473    0.7888    1.0538 H   0  0  0  0  0  0  0  0  0  0  0  0
   -3.2325   -0.9126    2.2201 H   0  0  0  0  0  0  0  0  0  0  0  0
   -1.3217   -1.2785   -0.7120 H   0  0  0  0  0  0  0  0  0  0  0  0
   -3.8810   -0.9153   -0.4035 H   0  0  0  0  0  0  0  0  0  0  0  0
   -2.0135    1.6791   -0.7908 H   0  0  0  0  0  0  0  0  0  0  0  0
   -1.7921    0.9898   -2.9333 H   0  0  0  0  0  0  0  0  0  0  0  0
  1  2  2  3
  2  3  1  0
  3  4  1  0
  2  5  1  0
  5  6  1  0
  6  7  1  0
  7  8  1  0
  8  9  1  0
  8 10  1  0
 10 11  1  0
 10 12  1  0
 12 13  1  0
 12  6  1  0
  1 14  1  0
  3 15  1  0
  4 16  1  0
  4 17  1  0
  5 18  1  0
  6 19  1  1
  7 20  1  0
  7 21  1  0
  8 22  1  6
  9 23  1  0
 10 24  1  1
 11 25  1  0
 12 26  1  6
 13 27  1  0
M  END
$$$$

     RDKit          3D

 27 27  0  0  0  0  0  0  0  0999 V2000
    1.8354    0.7966    1.1934 N   0  0  0  0  0  0  0  0  0  0  0  0
    2.0688   -0.2012    0.4266 C   0  0  0  0  0  0  0  0  0  0  0  0
    3.3723   -0.7619    0.3820 N   0  0  0  0  0  0  0  0  0  0  0  0
    4.4123   -0.3171    1.2035 N   0  0  0  0  0  0  0  0  0  0  0  0
    0.9925   -0.7038   -0.3528 N   0  0  0  0  0  0  0  0  0  0  0  0
   -0.1932    0.0712   -0.4764 C   0  0  2  0  0  0  0  0  0  0  0  0
   -0.8983    0.3731    0.8000 C   0  0  0  0  0  0  0  0  0  0  0  0
   -2.2867    0.7934    0.3331 C   0  0  2  0  0  0  0  0  0  0  0  0
   -3.2764    0.2668    1.1546 O   0  0  0  0  0  0  0  0  0  0  0  0
   -2.4177    0.3511   -1.0928 C   0  0  1  0  0  0  0  0  0  0  0  0
   -2.1699    1.3968   -1.9965 O   0  0  0  0  0  0  0  0  0  0  0  0
   -1.2865   -0.6439   -1.2617 C   0  0  2  0  0  0  0  0  0  0  0  0
   -1.6730   -1.8262   -0.6558 O   0  0  0  0  0  0  0  0  0  0  0  0
    2.6042    1.1856    1.7756 H   0  0  0  0  0  0  0  0  0  0  0  0
    3.5469   -1.5380   -0.2974 H   0  0  0  0  0  0  0  0  0  0  0  0
    5.3171   -0.6930    0.8447 H   0  0  0  0  0  0  0  0  0  0  0  0
    4.5061    0.7330    1.1943 H   0  0  0  0  0  0  0  0  0  0  0  0
    1.0692   -1.6267   -0.8278 H   0  0  0  0  0  0  0  0  0  0  0  0
   -0.0086    1.0238   -1.0313 H   0  0  0  0  0  0  0  0  0  0  0  0
   -1.0409   -0.5566    1.3858 H   0  0  0  0  0  0  0  0  0  0  0  0
   -0.4990    1.2052    1.3801 H   0  0  0  0  0  0  0  0  0  0  0  0
   -2.3968    1.9092    0.3861 H   0  0  0  0  0  0  0  0  0  0  0  0
   -2.9080    0.0058    2.0404 H   0  0  0  0  0  0  0  0  0  0  0  0
   -3.4078   -0.1029   -1.3030 H   0  0  0  0  0  0  0  0  0  0  0  0
   -1.8260    1.0426   -2.8615 H   0  0  0  0  0  0  0  0  0  0  0  0
   -1.0055   -0.7752   -2.3239 H   0  0  0  0  0  0  0  0  0  0  0  0
   -2.4306   -1.7030   -0.0193 H   0  0  0  0  0  0  0  0  0  0  0  0
  1  2  2  3
  2  3  1  0
  3  4  1  0
  2  5  1  0
  5  6  1  0
  6  7  1  0
  7  8  1  0
  8  9  1  0
  8 10  1  0
 10 11  1  0
 10 12  1  0
 12 13  1  0
 12  6  1  0
  1 14  1  0
  3 15  1  0
  4 16  1  0
  4 17  1  0
  5 18  1  0
  6 19  1  6
  7 20  1  0
  7 21  1  0
  8 22  1  6
  9 23  1  0
 10 24  1  1
 11 25  1  0
 12 26  1  6
 13 27  1  0
M  END
$$$$

     RDKit          3D

 27 27  0  0  0  0  0  0  0  0999 V2000
    1.8946   -1.3994   -0.9676 N   0  0  0  0  0  0  0  0  0  0  0  0
    1.8533   -0.2911   -0.3079 C   0  0  0  0  0  0  0  0  0  0  0  0
    2.8917    0.0956    0.5832 N   0  0  0  0  0  0  0  0  0  0  0  0
    4.0191   -0.7101    0.7693 N   0  0  0  0  0  0  0  0  0  0  0  0
    0.7043    0.5353   -0.5181 N   0  0  0  0  0  0  0  0  0  0  0  0
   -0.4737   -0.0378   -1.0897 C   0  0  2  0  0  0  0  0  0  0  0  0
   -1.5260    1.0459   -1.2008 C   0  0  0  0  0  0  0  0  0  0  0  0
   -1.9713    1.2058    0.2261 C   0  0  2  0  0  0  0  0  0  0  0  0
   -1.3875    2.3417    0.7965 O   0  0  0  0  0  0  0  0  0  0  0  0
   -1.5883   -0.0538    0.9564 C   0  0  1  0  0  0  0  0  0  0  0  0
   -2.7135   -0.6098    1.6032 O   0  0  0  0  0  0  0  0  0  0  0  0
   -1.1882   -0.9904   -0.1357 C   0  0  2  0  0  0  0  0  0  0  0  0
   -0.4043   -2.0353    0.2604 O   0  0  0  0  0  0  0  0  0  0  0  0
    2.6475   -2.0927   -0.9239 H   0  0  0  0  0  0  0  0  0  0  0  0
    2.8375    0.9885    1.1189 H   0  0  0  0  0  0  0  0  0  0  0  0
    4.2596   -0.6728    1.7871 H   0  0  0  0  0  0  0  0  0  0  0  0
    4.8116   -0.2292    0.2469 H   0  0  0  0  0  0  0  0  0  0  0  0
    0.7619    1.5422   -0.2448 H   0  0  0  0  0  0  0  0  0  0  0  0
   -0.2630   -0.5200   -2.0599 H   0  0  0  0  0  0  0  0  0  0  0  0
   -2.4015    0.5997   -1.7542 H   0  0  0  0  0  0  0  0  0  0  0  0
   -1.1572    1.9582   -1.6682 H   0  0  0  0  0  0  0  0  0  0  0  0
   -3.0727    1.3683    0.2827 H   0  0  0  0  0  0  0  0  0  0  0  0
   -1.3838    3.0752    0.1122 H   0  0  0  0  0  0  0  0  0  0  0  0
   -0.7923    0.1374    1.6918 H   0  0  0  0  0  0  0  0  0  0  0  0
   -3.3078   -1.0601    0.9677 H   0  0  0  0  0  0  0  0  0  0  0  0
   -2.1229   -1.3111   -0.6637 H   0  0  0  0  0  0  0  0  0  0  0  0
   -0.9269   -2.8801    0.1320 H   0  0  0  0  0  0  0  0  0  0  0  0
  1  2  2  3
  2  3  1  0
  3  4  1  0
  2  5  1  0
  5  6  1  0
  6  7  1  0
  7  8  1  0
  8  9  1  0
  8 10  1  0
 10 11  1  0
 10 12  1  0
 12 13  1  0
 12  6  1  0
  1 14  1  0
  3 15  1  0
  4 16  1  0
  4 17  1  0
  5 18  1  0
  6 19  1  6
  7 20  1  0
  7 21  1  0
  8 22  1  6
  9 23  1  0
 10 24  1  1
 11 25  1  0
 12 26  1  6
 13 27  1  0
M  END
$$$$
