
     RDKit          3D

 27 28  0  0  0  0  0  0  0  0999 V2000
    4.2280    0.8112    0.0565 C   0  0  0  0  0  0  0  0  0  0  0  0
    3.0615   -0.0162   -0.2024 N   0  0  0  0  0  0  0  0  0  0  0  0
    3.0685   -1.3264   -0.4116 C   0  0  0  0  0  0  0  0  0  0  0  0
    1.7828   -1.7748   -0.6226 C   0  0  0  0  0  0  0  0  0  0  0  0
    0.9877   -0.6548   -0.5290 C   0  0  0  0  0  0  0  0  0  0  0  0
   -0.2927   -0.6968   -0.6743 N   0  0  0  0  0  0  0  0  0  0  0  0
   -1.1616    0.4493   -0.5845 C   0  0  0  0  0  0  0  0  0  0  0  0
   -2.3021    0.1849    0.3737 C   0  0  0  0  0  0  0  0  0  0  0  0
   -1.8876   -0.1114    1.7123 N   0  0  0  0  0  0  0  0  0  0  0  0
   -3.3348    1.2865    0.2474 C   0  0  0  0  0  0  0  0  0  0  0  0
   -4.0663    0.4562   -0.6049 O   0  0  0  0  0  0  0  0  0  0  0  0
   -3.4041   -0.6826   -0.1458 C   0  0  0  0  0  0  0  0  0  0  0  0
    1.8042    0.3828   -0.2744 N   0  0  0  0  0  0  0  0  0  0  0  0
    4.6236    1.2436   -0.8704 H   0  0  0  0  0  0  0  0  0  0  0  0
    4.9858    0.1781    0.5271 H   0  0  0  0  0  0  0  0  0  0  0  0
    3.9672    1.6514    0.7351 H   0  0  0  0  0  0  0  0  0  0  0  0
    3.9392   -1.9894   -0.4237 H   0  0  0  0  0  0  0  0  0  0  0  0
    1.4599   -2.8004   -0.8219 H   0  0  0  0  0  0  0  0  0  0  0  0
   -0.5869    1.2995   -0.1630 H   0  0  0  0  0  0  0  0  0  0  0  0
   -1.5609    0.7667   -1.5629 H   0  0  0  0  0  0  0  0  0  0  0  0
   -2.1059   -1.1262    1.9037 H   0  0  0  0  0  0  0  0  0  0  0  0
   -0.8437    0.0416    1.8046 H   0  0  0  0  0  0  0  0  0  0  0  0
   -3.8043    1.4878    1.2282 H   0  0  0  0  0  0  0  0  0  0  0  0
   -2.9739    2.1893   -0.2852 H   0  0  0  0  0  0  0  0  0  0  0  0
   -3.0950   -1.4022   -0.9266 H   0  0  0  0  0  0  0  0  0  0  0  0
   -3.9398   -1.2115    0.6698 H   0  0  0  0  0  0  0  0  0  0  0  0
    1.4512    1.3640   -0.1553 H   0  0  0  0  0  0  0  0  0  0  0  0
  1  2  1  0
  2  3  1  0
  3  4  2  0
  4  5  1  0
  5  6  2  3
  6  7  1  0
  7  8  1  0
  8  9  1  0
  8 10  1  0
 10 11  1  0
 11 12  1  0
  5 13  1  0
 13  2  1  0
 12  8  1  0
  1 14  1  0
  1 15  1  0
  1 16  1  0
  3 17  1  0
  4 18  1  0
  7 19  1  0
  7 20  1  0
  9 21  1  0
  9 22  1  0
 10 23  1  0
 10 24  1  0
 12 25  1  0
 12 26  1  0
 13 27  1  0
M  END
$$$$

     RDKit          3D

 27 28  0  0  0  0  0  0  0  0999 V2000
    4.4088    0.6910   -1.2109 C   0  0  0  0  0  0  0  0  0  0  0  0
    3.1665    0.2414   -0.6055 N   0  0  0  0  0  0  0  0  0  0  0  0
    3.0929   -0.6766    0.3792 C   0  0  0  0  0  0  0  0  0  0  0  0
    1.7310   -0.8124    0.6629 C   0  0  0  0  0  0  0  0  0  0  0  0
    1.0344    0.0329   -0.1659 C   0  0  0  0  0  0  0  0  0  0  0  0
   -0.2328    0.2251   -0.2411 N   0  0  0  0  0  0  0  0  0  0  0  0
   -1.0860   -0.5305    0.6503 C   0  0  0  0  0  0  0  0  0  0  0  0
   -2.5386   -0.2537    0.4456 C   0  0  0  0  0  0  0  0  0  0  0  0
   -3.3660   -1.0054    1.3310 N   0  0  0  0  0  0  0  0  0  0  0  0
   -3.0055   -0.1621   -0.9769 C   0  0  0  0  0  0  0  0  0  0  0  0
   -3.9246    0.8179   -0.5477 O   0  0  0  0  0  0  0  0  0  0  0  0
   -2.9351    1.2016    0.3884 C   0  0  0  0  0  0  0  0  0  0  0  0
    1.9426    0.6611   -0.9274 N   0  0  0  0  0  0  0  0  0  0  0  0
    4.8488   -0.1008   -1.8394 H   0  0  0  0  0  0  0  0  0  0  0  0
    4.2734    1.5876   -1.8248 H   0  0  0  0  0  0  0  0  0  0  0  0
    5.1340    0.8571   -0.3668 H   0  0  0  0  0  0  0  0  0  0  0  0
    3.8905   -1.2011    0.8562 H   0  0  0  0  0  0  0  0  0  0  0  0
    1.3283   -1.4842    1.4191 H   0  0  0  0  0  0  0  0  0  0  0  0
   -0.8172   -0.2504    1.6952 H   0  0  0  0  0  0  0  0  0  0  0  0
   -0.9224   -1.6165    0.5188 H   0  0  0  0  0  0  0  0  0  0  0  0
   -2.9459   -1.9121    1.6301 H   0  0  0  0  0  0  0  0  0  0  0  0
   -3.5302   -0.4275    2.1944 H   0  0  0  0  0  0  0  0  0  0  0  0
   -2.2665    0.3172   -1.6335 H   0  0  0  0  0  0  0  0  0  0  0  0
   -3.4455   -1.0502   -1.4250 H   0  0  0  0  0  0  0  0  0  0  0  0
   -2.1971    1.8820   -0.0625 H   0  0  0  0  0  0  0  0  0  0  0  0
   -3.3961    1.5923    1.3260 H   0  0  0  0  0  0  0  0  0  0  0  0
    1.7581    1.3763   -1.6698 H   0  0  0  0  0  0  0  0  0  0  0  0
  1  2  1  0
  2  3  1  0
  3  4  2  0
  4  5  1  0
  5  6  2  3
  6  7  1  0
  7  8  1  0
  8  9  1  0
  8 10  1  0
 10 11  1  0
 11 12  1  0
  5 13  1  0
 13  2  1  0
 12  8  1  0
  1 14  1  0
  1 15  1  0
  1 16  1  0
  3 17  1  0
  4 18  1  0
  7 19  1  0
  7 20  1  0
  9 21  1  0
  9 22  1  0
 10 23  1  0
 10 24  1  0
 12 25  1  0
 12 26  1  0
 13 27  1  0
M  END
$$$$

     RDKit          3D

 27 28  0  0  0  0  0  0  0  0999 V2000
    4.5656   -0.9522    0.5514 C   0  0  0  0  0  0  0  0  0  0  0  0
    3.2489   -0.3461    0.4774 N   0  0  0  0  0  0  0  0  0  0  0  0
    2.9999    0.9677    0.6837 C   0  0  0  0  0  0  0  0  0  0  0  0
    1.6182    1.1188    0.5169 C   0  0  0  0  0  0  0  0  0  0  0  0
    1.0855   -0.1171    0.2148 C   0  0  0  0  0  0  0  0  0  0  0  0
   -0.1705   -0.4007   -0.0142 N   0  0  0  0  0  0  0  0  0  0  0  0
   -1.1567    0.6628    0.0423 C   0  0  0  0  0  0  0  0  0  0  0  0
   -2.5290    0.0345    0.1482 C   0  0  0  0  0  0  0  0  0  0  0  0
   -2.6256   -0.7700    1.3305 N   0  0  0  0  0  0  0  0  0  0  0  0
   -2.9295   -0.6742   -1.1293 C   0  0  0  0  0  0  0  0  0  0  0  0
   -3.8286    0.3664   -1.3968 O   0  0  0  0  0  0  0  0  0  0  0  0
   -3.6569    0.9705   -0.1346 C   0  0  0  0  0  0  0  0  0  0  0  0
    2.1165   -0.9748    0.2024 N   0  0  0  0  0  0  0  0  0  0  0  0
    4.7384   -1.4481   -0.4340 H   0  0  0  0  0  0  0  0  0  0  0  0
    5.3399   -0.1904    0.6720 H   0  0  0  0  0  0  0  0  0  0  0  0
    4.5476   -1.7024    1.3901 H   0  0  0  0  0  0  0  0  0  0  0  0
    3.7100    1.7318    0.9241 H   0  0  0  0  0  0  0  0  0  0  0  0
    1.0644    2.0597    0.6118 H   0  0  0  0  0  0  0  0  0  0  0  0
   -1.0631    1.3494   -0.8223 H   0  0  0  0  0  0  0  0  0  0  0  0
   -0.9779    1.1991    1.0102 H   0  0  0  0  0  0  0  0  0  0  0  0
   -2.9208   -0.1811    2.1267 H   0  0  0  0  0  0  0  0  0  0  0  0
   -1.6885   -1.1752    1.5224 H   0  0  0  0  0  0  0  0  0  0  0  0
   -3.4467   -1.6401   -0.9203 H   0  0  0  0  0  0  0  0  0  0  0  0
   -2.1251   -0.8059   -1.8697 H   0  0  0  0  0  0  0  0  0  0  0  0
   -3.3427    2.0451   -0.2067 H   0  0  0  0  0  0  0  0  0  0  0  0
   -4.5565    0.8751    0.5008 H   0  0  0  0  0  0  0  0  0  0  0  0
    1.9831   -2.0024   -0.0051 H   0  0  0  0  0  0  0  0  0  0  0  0
  1  2  1  0
  2  3  1  0
  3  4  2  0
  4  5  1  0
  5  6  2  3
  6  7  1  0
  7  8  1  0
  8  9  1  0
  8 10  1  0
 10 11  1  0
 11 12  1  0
  5 13  1  0
 13  2  1  0
 12  8  1  0
  1 14  1  0
  1 15  1  0
  1 16  1  0
  3 17  1  0
  4 18  1  0
  7 19  1  0
  7 20  1  0
  9 21  1  0
  9 22  1  0
 10 23  1  0
 10 24  1  0
 12 25  1  0
 12 26  1  0
 13 27  1  0
M  END
$$$$

     RDKit          3D

 27 28  0  0  0  0  0  0  0  0999 V2000
    4.6507   -0.7021   -0.0881 C   0  0  0  0  0  0  0  0  0  0  0  0
    3.2914   -0.1745   -0.2366 N   0  0  0  0  0  0  0  0  0  0  0  0
    2.9111    0.8153   -1.0507 C   0  0  0  0  0  0  0  0  0  0  0  0
    1.5493    1.0071   -0.8906 C   0  0  0  0  0  0  0  0  0  0  0  0
    1.1301    0.0903    0.0538 C   0  0  0  0  0  0  0  0  0  0  0  0
   -0.0738   -0.0883    0.5146 N   0  0  0  0  0  0  0  0  0  0  0  0
   -1.1767    0.6954    0.0678 C   0  0  0  0  0  0  0  0  0  0  0  0
   -2.5031   -0.0093    0.1735 C   0  0  0  0  0  0  0  0  0  0  0  0
   -2.8519   -0.4022    1.5137 N   0  0  0  0  0  0  0  0  0  0  0  0
   -3.5760    0.8418   -0.5031 C   0  0  0  0  0  0  0  0  0  0  0  0
   -4.0098   -0.3008   -1.1626 O   0  0  0  0  0  0  0  0  0  0  0  0
   -2.8232   -1.0111   -0.8672 C   0  0  0  0  0  0  0  0  0  0  0  0
    2.2284   -0.5917    0.4084 N   0  0  0  0  0  0  0  0  0  0  0  0
    5.1736   -0.7392   -1.0587 H   0  0  0  0  0  0  0  0  0  0  0  0
    5.2299   -0.0784    0.6362 H   0  0  0  0  0  0  0  0  0  0  0  0
    4.6425   -1.7396    0.3047 H   0  0  0  0  0  0  0  0  0  0  0  0
    3.5788    1.3549   -1.7104 H   0  0  0  0  0  0  0  0  0  0  0  0
    0.9140    1.7302   -1.3971 H   0  0  0  0  0  0  0  0  0  0  0  0
   -1.2383    1.5993    0.7411 H   0  0  0  0  0  0  0  0  0  0  0  0
   -1.0103    1.0937   -0.9426 H   0  0  0  0  0  0  0  0  0  0  0  0
   -3.5183   -1.2011    1.5052 H   0  0  0  0  0  0  0  0  0  0  0  0
   -1.9821   -0.5766    2.0317 H   0  0  0  0  0  0  0  0  0  0  0  0
   -4.2850    1.2696    0.2370 H   0  0  0  0  0  0  0  0  0  0  0  0
   -3.1785    1.5705   -1.2354 H   0  0  0  0  0  0  0  0  0  0  0  0
   -2.1862   -1.0812   -1.7515 H   0  0  0  0  0  0  0  0  0  0  0  0
   -3.1384   -2.0101   -0.4568 H   0  0  0  0  0  0  0  0  0  0  0  0
    2.2517   -1.3618    1.1090 H   0  0  0  0  0  0  0  0  0  0  0  0
  1  2  1  0
  2  3  1  0
  3  4  2  0
  4  5  1  0
  5  6  2  3
  6  7  1  0
  7  8  1  0
  8  9  1  0
  8 10  1  0
 10 11  1  0
 11 12  1  0
  5 13  1  0
 13  2  1  0
 12  8  1  0
  1 14  1  0
  1 15  1  0
  1 16  1  0
  3 17  1  0
  4 18  1  0
  7 19  1  0
  7 20  1  0
  9 21  1  0
  9 22  1  0
 10 23  1  0
 10 24  1  0
 12 25  1  0
 12 26  1  0
 13 27  1  0
M  END
$$$$

     RDKit          3D

 27 28  0  0  0  0  0  0  0  0999 V2000
    3.7100   -1.3223    0.2744 C   0  0  0  0  0  0  0  0  0  0  0  0
    2.7982   -0.2081    0.2831 N   0  0  0  0  0  0  0  0  0  0  0  0
    3.0406    1.0106    0.7573 C   0  0  0  0  0  0  0  0  0  0  0  0
    1.8818    1.7350    0.5507 C   0  0  0  0  0  0  0  0  0  0  0  0
    0.9471    0.9147   -0.0578 C   0  0  0  0  0  0  0  0  0  0  0  0
   -0.2321    1.3127   -0.3747 N   0  0  0  0  0  0  0  0  0  0  0  0
   -1.2074    0.4568   -1.0097 C   0  0  0  0  0  0  0  0  0  0  0  0
   -2.0594   -0.1544    0.0694 C   0  0  0  0  0  0  0  0  0  0  0  0
   -1.3735   -0.9525    1.0397 N   0  0  0  0  0  0  0  0  0  0  0  0
   -2.9913    0.8959    0.6442 C   0  0  0  0  0  0  0  0  0  0  0  0
   -3.8828    0.5842   -0.4067 O   0  0  0  0  0  0  0  0  0  0  0  0
   -3.3779   -0.7113   -0.3600 C   0  0  0  0  0  0  0  0  0  0  0  0
    1.5498   -0.2684   -0.2040 N   0  0  0  0  0  0  0  0  0  0  0  0
    4.6950   -1.0071    0.6207 H   0  0  0  0  0  0  0  0  0  0  0  0
    3.8197   -1.7662   -0.7379 H   0  0  0  0  0  0  0  0  0  0  0  0
    3.3061   -2.0727    0.9987 H   0  0  0  0  0  0  0  0  0  0  0  0
    3.9696    1.3261    1.2050 H   0  0  0  0  0  0  0  0  0  0  0  0
    1.7268    2.7746    0.8197 H   0  0  0  0  0  0  0  0  0  0  0  0
   -0.7328   -0.3012   -1.6732 H   0  0  0  0  0  0  0  0  0  0  0  0
   -1.8730    1.1335   -1.6083 H   0  0  0  0  0  0  0  0  0  0  0  0
   -0.6939   -0.4305    1.6109 H   0  0  0  0  0  0  0  0  0  0  0  0
   -0.9659   -1.7807    0.5543 H   0  0  0  0  0  0  0  0  0  0  0  0
   -3.3386    0.5700    1.6412 H   0  0  0  0  0  0  0  0  0  0  0  0
   -2.5743    1.9226    0.5883 H   0  0  0  0  0  0  0  0  0  0  0  0
   -3.4008   -1.2779   -1.2893 H   0  0  0  0  0  0  0  0  0  0  0  0
   -3.8543   -1.2753    0.4547 H   0  0  0  0  0  0  0  0  0  0  0  0
    1.1131   -1.1082   -0.6319 H   0  0  0  0  0  0  0  0  0  0  0  0
  1  2  1  0
  2  3  1  0
  3  4  2  0
  4  5  1  0
  5  6  2  3
  6  7  1  0
  7  8  1  0
  8  9  1  0
  8 10  1  0
 10 11  1  0
 11 12  1  0
  5 13  1  0
 13  2  1  0
 12  8  1  0
  1 14  1  0
  1 15  1  0
  1 16  1  0
  3 17  1  0
  4 18  1  0
  7 19  1  0
  7 20  1  0
  9 21  1  0
  9 22  1  0
 10 23  1  0
 10 24  1  0
 12 25  1  0
 12 26  1  0
 13 27  1  0
M  END
$$$$

     RDKit          3D

 27 28  0  0  0  0  0  0  0  0999 V2000
    4.3678    0.1224    0.1613 C   0  0  0  0  0  0  0  0  0  0  0  0
    3.0635   -0.3583   -0.2745 N   0  0  0  0  0  0  0  0  0  0  0  0
    2.8357   -1.3897   -1.0857 C   0  0  0  0  0  0  0  0  0  0  0  0
    1.4836   -1.5274   -1.2576 C   0  0  0  0  0  0  0  0  0  0  0  0
    0.8924   -0.5247   -0.5083 C   0  0  0  0  0  0  0  0  0  0  0  0
   -0.3768   -0.3657   -0.4461 N   0  0  0  0  0  0  0  0  0  0  0  0
   -0.9029    0.7152    0.3670 C   0  0  0  0  0  0  0  0  0  0  0  0
   -2.4065    0.5803    0.3759 C   0  0  0  0  0  0  0  0  0  0  0  0
   -3.1271    1.5610    1.1308 N   0  0  0  0  0  0  0  0  0  0  0  0
   -2.8517   -0.8549    0.5526 C   0  0  0  0  0  0  0  0  0  0  0  0
   -2.6795   -1.0153   -0.8387 O   0  0  0  0  0  0  0  0  0  0  0  0
   -3.0362    0.3222   -0.9729 C   0  0  0  0  0  0  0  0  0  0  0  0
    1.8949    0.1577    0.0694 N   0  0  0  0  0  0  0  0  0  0  0  0
    4.4757    1.2177   -0.0386 H   0  0  0  0  0  0  0  0  0  0  0  0
    4.5219   -0.1054    1.2449 H   0  0  0  0  0  0  0  0  0  0  0  0
    5.1566   -0.4036   -0.4080 H   0  0  0  0  0  0  0  0  0  0  0  0
    3.5657   -2.0341   -1.5503 H   0  0  0  0  0  0  0  0  0  0  0  0
    0.9715   -2.2704   -1.8588 H   0  0  0  0  0  0  0  0  0  0  0  0
   -0.5368    0.5531    1.4022 H   0  0  0  0  0  0  0  0  0  0  0  0
   -0.5688    1.6982   -0.0064 H   0  0  0  0  0  0  0  0  0  0  0  0
   -2.6711    1.6302    2.0855 H   0  0  0  0  0  0  0  0  0  0  0  0
   -2.9851    2.4947    0.6829 H   0  0  0  0  0  0  0  0  0  0  0  0
   -2.1806   -1.4847    1.1545 H   0  0  0  0  0  0  0  0  0  0  0  0
   -3.9273   -0.9643    0.7861 H   0  0  0  0  0  0  0  0  0  0  0  0
   -2.5933    0.8444   -1.8227 H   0  0  0  0  0  0  0  0  0  0  0  0
   -4.1477    0.4206   -0.8718 H   0  0  0  0  0  0  0  0  0  0  0  0
    1.7622    0.9807    0.7015 H   0  0  0  0  0  0  0  0  0  0  0  0
  1  2  1  0
  2  3  1  0
  3  4  2  0
  4  5  1  0
  5  6  2  3
  6  7  1  0
  7  8  1  0
  8  9  1  0
  8 10  1  0
 10 11  1  0
 11 12  1  0
  5 13  1  0
 13  2  1  0
 12  8  1  0
  1 14  1  0
  1 15  1  0
  1 16  1  0
  3 17  1  0
  4 18  1  0
  7 19  1  0
  7 20  1  0
  9 21  1  0
  9 22  1  0
 10 23  1  0
 10 24  1  0
 12 25  1  0
 12 26  1  0
 13 27  1  0
M  END
$$$$

     RDKit          3D

 27 28  0  0  0  0  0  0  0  0999 V2000
    4.6857   -0.1862    0.7222 C   0  0  0  0  0  0  0  0  0  0  0  0
    3.3282    0.1267    0.3418 N   0  0  0  0  0  0  0  0  0  0  0  0
    2.9040    1.3098   -0.1357 C   0  0  0  0  0  0  0  0  0  0  0  0
    1.5533    1.1407   -0.3555 C   0  0  0  0  0  0  0  0  0  0  0  0
    1.1784   -0.1431   -0.0078 C   0  0  0  0  0  0  0  0  0  0  0  0
   -0.0186   -0.6116   -0.0973 N   0  0  0  0  0  0  0  0  0  0  0  0
   -1.1052    0.2100   -0.5905 C   0  0  0  0  0  0  0  0  0  0  0  0
   -2.4385   -0.2288   -0.0134 C   0  0  0  0  0  0  0  0  0  0  0  0
   -2.5215   -0.1635    1.4195 N   0  0  0  0  0  0  0  0  0  0  0  0
   -2.9596   -1.4887   -0.6409 C   0  0  0  0  0  0  0  0  0  0  0  0
   -3.8793   -0.7585   -1.4184 O   0  0  0  0  0  0  0  0  0  0  0  0
   -3.6160    0.3933   -0.6968 C   0  0  0  0  0  0  0  0  0  0  0  0
    2.3107   -0.7278    0.4165 N   0  0  0  0  0  0  0  0  0  0  0  0
    5.3798   -0.2237   -0.1433 H   0  0  0  0  0  0  0  0  0  0  0  0
    5.0886    0.5869    1.4386 H   0  0  0  0  0  0  0  0  0  0  0  0
    4.7273   -1.1482    1.2762 H   0  0  0  0  0  0  0  0  0  0  0  0
    3.5545    2.1569   -0.2829 H   0  0  0  0  0  0  0  0  0  0  0  0
    0.9117    1.9123   -0.7414 H   0  0  0  0  0  0  0  0  0  0  0  0
   -0.9467    1.2586   -0.2005 H   0  0  0  0  0  0  0  0  0  0  0  0
   -1.1334    0.3032   -1.6812 H   0  0  0  0  0  0  0  0  0  0  0  0
   -2.3493    0.8161    1.7294 H   0  0  0  0  0  0  0  0  0  0  0  0
   -3.4442   -0.5418    1.7048 H   0  0  0  0  0  0  0  0  0  0  0  0
   -3.5028   -2.1845   -0.0017 H   0  0  0  0  0  0  0  0  0  0  0  0
   -2.1948   -1.9512   -1.3107 H   0  0  0  0  0  0  0  0  0  0  0  0
   -3.3645    1.2206   -1.4116 H   0  0  0  0  0  0  0  0  0  0  0  0
   -4.4742    0.6464   -0.0485 H   0  0  0  0  0  0  0  0  0  0  0  0
    2.3264   -1.7239    0.7488 H   0  0  0  0  0  0  0  0  0  0  0  0
  1  2  1  0
  2  3  1  0
  3  4  2  0
  4  5  1  0
  5  6  2  3
  6  7  1  0
  7  8  1  0
  8  9  1  0
  8 10  1  0
 10 11  1  0
 11 12  1  0
  5 13  1  0
 13  2  1  0
 12  8  1  0
  1 14  1  0
  1 15  1  0
  1 16  1  0
  3 17  1  0
  4 18  1  0
  7 19  1  0
  7 20  1  0
  9 21  1  0
  9 22  1  0
 10 23  1  0
 10 24  1  0
 12 25  1  0
 12 26  1  0
 13 27  1  0
M  END
$$$$

     RDKit          3D

 27 28  0  0  0  0  0  0  0  0999 V2000
    4.2371    0.6945    0.1185 C   0  0  0  0  0  0  0  0  0  0  0  0
    3.0444   -0.1653    0.1086 N   0  0  0  0  0  0  0  0  0  0  0  0
    2.9767   -1.4820    0.3897 C   0  0  0  0  0  0  0  0  0  0  0  0
    1.6725   -1.9104    0.2651 C   0  0  0  0  0  0  0  0  0  0  0  0
    0.9492   -0.7976   -0.1040 C   0  0  0  0  0  0  0  0  0  0  0  0
   -0.3326   -0.7724   -0.3256 N   0  0  0  0  0  0  0  0  0  0  0  0
   -0.9847    0.4417   -0.7053 C   0  0  0  0  0  0  0  0  0  0  0  0
   -2.4141    0.4867   -0.2264 C   0  0  0  0  0  0  0  0  0  0  0  0
   -3.1514    1.6616   -0.5561 N   0  0  0  0  0  0  0  0  0  0  0  0
   -2.6287    0.0584    1.1949 C   0  0  0  0  0  0  0  0  0  0  0  0
   -2.5273   -1.2779    0.7486 O   0  0  0  0  0  0  0  0  0  0  0  0
   -3.1561   -0.8337   -0.4373 C   0  0  0  0  0  0  0  0  0  0  0  0
    1.8117    0.2143   -0.1835 N   0  0  0  0  0  0  0  0  0  0  0  0
    5.0321    0.1109    0.6273 H   0  0  0  0  0  0  0  0  0  0  0  0
    4.0696    1.5994    0.7411 H   0  0  0  0  0  0  0  0  0  0  0  0
    4.5590    0.9618   -0.8977 H   0  0  0  0  0  0  0  0  0  0  0  0
    3.8181   -2.1015    0.6692 H   0  0  0  0  0  0  0  0  0  0  0  0
    1.2583   -2.9101    0.4175 H   0  0  0  0  0  0  0  0  0  0  0  0
   -0.4614    1.3010   -0.2266 H   0  0  0  0  0  0  0  0  0  0  0  0
   -0.9109    0.5432   -1.7988 H   0  0  0  0  0  0  0  0  0  0  0  0
   -3.0661    2.3896    0.2100 H   0  0  0  0  0  0  0  0  0  0  0  0
   -2.7387    2.0907   -1.4143 H   0  0  0  0  0  0  0  0  0  0  0  0
   -1.8458    0.3438    1.9201 H   0  0  0  0  0  0  0  0  0  0  0  0
   -3.6731    0.2378    1.4967 H   0  0  0  0  0  0  0  0  0  0  0  0
   -4.2432   -0.7111   -0.2529 H   0  0  0  0  0  0  0  0  0  0  0  0
   -2.8595   -1.3825   -1.3326 H   0  0  0  0  0  0  0  0  0  0  0  0
    1.5647    1.2091   -0.4462 H   0  0  0  0  0  0  0  0  0  0  0  0
  1  2  1  0
  2  3  1  0
  3  4  2  0
  4  5  1  0
  5  6  2  3
  6  7  1  0
  7  8  1  0
  8  9  1  0
  8 10  1  0
 10 11  1  0
 11 12  1  0
  5 13  1  0
 13  2  1  0
 12  8  1  0
  1 14  1  0
  1 15  1  0
  1 16  1  0
  3 17  1  0
  4 18  1  0
  7 19  1  0
  7 20  1  0
  9 21  1  0
  9 22  1  0
 10 23  1  0
 10 24  1  0
 12 25  1  0
 12 26  1  0
 13 27  1  0
M  END
$$$$
