
     RDKit          3D

 34 34  0  0  0  0  0  0  0  0999 V2000
    3.5583    1.4588    0.2560 C   0  0  0  0  0  0  0  0  0  0  0  0
    2.6732    0.5394   -0.5967 C   0  0  1  0  0  0  0  0  0  0  0  0
    3.4331   -0.6491   -0.8744 N   0  0  0  0  0  0  0  0  0  0  0  0
    1.4195    0.3289    0.1587 C   0  0  0  0  0  0  0  0  0  0  0  0
    0.4461   -0.5192   -0.4904 N   0  0  0  0  0  0  0  0  0  0  0  0
    0.8806   -1.8963   -0.5718 C   0  0  0  0  0  0  0  0  0  0  0  0
   -0.8084   -0.5117    0.2480 C   0  0  1  0  0  0  0  0  0  0  0  0
   -1.4108    0.8664    0.3122 C   0  0  0  0  0  0  0  0  0  0  0  0
   -2.8325    0.7155    0.1961 N   0  0  0  0  0  0  0  0  0  0  0  0
   -3.4257    1.8723   -0.4474 C   0  0  0  0  0  0  0  0  0  0  0  0
   -3.0838   -0.4836   -0.5589 C   0  0  0  0  0  0  0  0  0  0  0  0
   -1.8142   -1.3057   -0.5352 C   0  0  2  0  0  0  0  0  0  0  0  0
   -2.1342   -2.5211    0.0608 O   0  0  0  0  0  0  0  0  0  0  0  0
    3.4479    2.5098   -0.0823 H   0  0  0  0  0  0  0  0  0  0  0  0
    4.6350    1.1919    0.1503 H   0  0  0  0  0  0  0  0  0  0  0  0
    3.2618    1.3941    1.3154 H   0  0  0  0  0  0  0  0  0  0  0  0
    2.4985    1.0737   -1.5418 H   0  0  0  0  0  0  0  0  0  0  0  0
    3.7025   -1.1739   -0.0146 H   0  0  0  0  0  0  0  0  0  0  0  0
    4.2351   -0.3919   -1.4822 H   0  0  0  0  0  0  0  0  0  0  0  0
    0.9397    1.3211    0.3014 H   0  0  0  0  0  0  0  0  0  0  0  0
    1.6379   -0.0543    1.1814 H   0  0  0  0  0  0  0  0  0  0  0  0
    1.6162   -2.0872   -1.3795 H   0  0  0  0  0  0  0  0  0  0  0  0
    1.2292   -2.2803    0.4225 H   0  0  0  0  0  0  0  0  0  0  0  0
   -0.0017   -2.5083   -0.8265 H   0  0  0  0  0  0  0  0  0  0  0  0
   -0.6959   -0.9819    1.2418 H   0  0  0  0  0  0  0  0  0  0  0  0
   -1.0378    1.5723   -0.4241 H   0  0  0  0  0  0  0  0  0  0  0  0
   -1.2049    1.3088    1.3296 H   0  0  0  0  0  0  0  0  0  0  0  0
   -2.8021    2.1238   -1.3339 H   0  0  0  0  0  0  0  0  0  0  0  0
   -3.3647    2.7428    0.2530 H   0  0  0  0  0  0  0  0  0  0  0  0
   -4.4508    1.6595   -0.7688 H   0  0  0  0  0  0  0  0  0  0  0  0
   -3.3828   -0.1828   -1.5892 H   0  0  0  0  0  0  0  0  0  0  0  0
   -3.9464   -1.0422   -0.1388 H   0  0  0  0  0  0  0  0  0  0  0  0
   -1.5313   -1.4484   -1.5992 H   0  0  0  0  0  0  0  0  0  0  0  0
   -1.6865   -2.6413    0.9426 H   0  0  0  0  0  0  0  0  0  0  0  0
  1  2  1  0
  2  3  1  0
  2  4  1  0
  4  5  1  0
  5  6  1  0
  5  7  1  0
  7  8  1  0
  8  9  1  0
  9 10  1  0
  9 11  1  0
 11 12  1  0
 12 13  1  0
 12  7  1  0
  1 14  1  0
  1 15  1  0
  1 16  1  0
  2 17  1  6
  3 18  1  0
  3 19  1  0
  4 20  1  0
  4 21  1  0
  6 22  1  0
  6 23  1  0
  6 24  1  0
  7 25  1  1
  8 26  1  0
  8 27  1  0
 10 28  1  0
 10 29  1  0
 10 30  1  0
 11 31  1  0
 11 32  1  0
 12 33  1  6
 13 34  1  0
M  END
$$$$

     RDKit          3D

 34 34  0  0  0  0  0  0  0  0999 V2000
   -3.7647   -0.9881    0.9864 C   0  0  0  0  0  0  0  0  0  0  0  0
   -2.8234   -0.3418   -0.0447 C   0  0  1  0  0  0  0  0  0  0  0  0
   -3.4410    0.8587   -0.4806 N   0  0  0  0  0  0  0  0  0  0  0  0
   -1.4553   -0.2120    0.5671 C   0  0  0  0  0  0  0  0  0  0  0  0
   -0.4997    0.3806   -0.3165 N   0  0  0  0  0  0  0  0  0  0  0  0
   -0.7737    1.7997   -0.5207 C   0  0  0  0  0  0  0  0  0  0  0  0
    0.8673    0.2230    0.0799 C   0  0  1  0  0  0  0  0  0  0  0  0
    1.2789   -1.2246    0.1895 C   0  0  0  0  0  0  0  0  0  0  0  0
    2.6678   -1.2608   -0.1287 N   0  0  0  0  0  0  0  0  0  0  0  0
    3.5655   -1.4062    0.9800 C   0  0  0  0  0  0  0  0  0  0  0  0
    2.9540   -0.1663   -0.9859 C   0  0  0  0  0  0  0  0  0  0  0  0
    1.7500    0.7444   -1.0215 C   0  0  2  0  0  0  0  0  0  0  0  0
    2.1330    2.0620   -0.7512 O   0  0  0  0  0  0  0  0  0  0  0  0
   -3.3262   -1.8849    1.4345 H   0  0  0  0  0  0  0  0  0  0  0  0
   -4.0852   -0.2134    1.7166 H   0  0  0  0  0  0  0  0  0  0  0  0
   -4.7019   -1.2523    0.4224 H   0  0  0  0  0  0  0  0  0  0  0  0
   -2.8182   -1.0556   -0.9140 H   0  0  0  0  0  0  0  0  0  0  0  0
   -3.5642    0.9683   -1.5044 H   0  0  0  0  0  0  0  0  0  0  0  0
   -4.1659    1.2672    0.1125 H   0  0  0  0  0  0  0  0  0  0  0  0
   -1.5779    0.4859    1.4405 H   0  0  0  0  0  0  0  0  0  0  0  0
   -1.1764   -1.1717    0.9840 H   0  0  0  0  0  0  0  0  0  0  0  0
    0.0579    2.4517   -0.1609 H   0  0  0  0  0  0  0  0  0  0  0  0
   -0.9494    2.0633   -1.5767 H   0  0  0  0  0  0  0  0  0  0  0  0
   -1.6381    2.1299    0.1166 H   0  0  0  0  0  0  0  0  0  0  0  0
    1.1048    0.7311    1.0212 H   0  0  0  0  0  0  0  0  0  0  0  0
    0.7473   -1.9074   -0.4757 H   0  0  0  0  0  0  0  0  0  0  0  0
    1.1575   -1.5106    1.2721 H   0  0  0  0  0  0  0  0  0  0  0  0
    4.3738   -0.6247    1.0008 H   0  0  0  0  0  0  0  0  0  0  0  0
    3.0751   -1.4955    1.9649 H   0  0  0  0  0  0  0  0  0  0  0  0
    4.1301   -2.3637    0.8218 H   0  0  0  0  0  0  0  0  0  0  0  0
    3.8430    0.4283   -0.6807 H   0  0  0  0  0  0  0  0  0  0  0  0
    3.1266   -0.5456   -2.0076 H   0  0  0  0  0  0  0  0  0  0  0  0
    1.2316    0.6610   -2.0196 H   0  0  0  0  0  0  0  0  0  0  0  0
    2.6970    2.3701   -1.5211 H   0  0  0  0  0  0  0  0  0  0  0  0
  1  2  1  0
  2  3  1  0
  2  4  1  0
  4  5  1  0
  5  6  1  0
  5  7  1  0
  7  8  1  0
  8  9  1  0
  9 10  1  0
  9 11  1  0
 11 12  1  0
 12 13  1  0
 12  7  1  0
  1 14  1  0
  1 15  1  0
  1 16  1  0
  2 17  1  6
  3 18  1  0
  3 19  1  0
  4 20  1  0
  4 21  1  0
  6 22  1  0
  6 23  1  0
  6 24  1  0
  7 25  1  1
  8 26  1  0
  8 27  1  0
 10 28  1  0
 10 29  1  0
 10 30  1  0
 11 31  1  0
 11 32  1  0
 12 33  1  6
 13 34  1  0
M  END
$$$$

     RDKit          3D

 34 34  0  0  0  0  0  0  0  0999 V2000
    2.9230    1.5958    0.2628 C   0  0  0  0  0  0  0  0  0  0  0  0
    2.5422    0.4693   -0.6708 C   0  0  1  0  0  0  0  0  0  0  0  0
    3.4695   -0.6092   -0.5608 N   0  0  0  0  0  0  0  0  0  0  0  0
    1.0896    0.0742   -0.5596 C   0  0  0  0  0  0  0  0  0  0  0  0
    0.7049   -0.3683    0.7333 N   0  0  0  0  0  0  0  0  0  0  0  0
    1.2781   -1.6214    1.1505 C   0  0  0  0  0  0  0  0  0  0  0  0
   -0.7144   -0.3911    0.9590 C   0  0  1  0  0  0  0  0  0  0  0  0
   -1.3949    0.9248    0.8832 C   0  0  0  0  0  0  0  0  0  0  0  0
   -2.1445    0.9738   -0.3541 N   0  0  0  0  0  0  0  0  0  0  0  0
   -3.5512    1.2665   -0.1516 C   0  0  0  0  0  0  0  0  0  0  0  0
   -2.0512   -0.3206   -0.9817 C   0  0  0  0  0  0  0  0  0  0  0  0
   -1.4795   -1.2614    0.0303 C   0  0  2  0  0  0  0  0  0  0  0  0
   -2.5495   -1.8385    0.7443 O   0  0  0  0  0  0  0  0  0  0  0  0
    2.1479    2.3743    0.2897 H   0  0  0  0  0  0  0  0  0  0  0  0
    3.8576    2.0586   -0.1700 H   0  0  0  0  0  0  0  0  0  0  0  0
    3.2318    1.2371    1.2636 H   0  0  0  0  0  0  0  0  0  0  0  0
    2.6988    0.8979   -1.7080 H   0  0  0  0  0  0  0  0  0  0  0  0
    4.3497   -0.3751   -0.0581 H   0  0  0  0  0  0  0  0  0  0  0  0
    3.5798   -1.1855   -1.4009 H   0  0  0  0  0  0  0  0  0  0  0  0
    0.5026    1.0143   -0.7672 H   0  0  0  0  0  0  0  0  0  0  0  0
    0.8527   -0.6323   -1.3737 H   0  0  0  0  0  0  0  0  0  0  0  0
    2.3672   -1.5132    1.3333 H   0  0  0  0  0  0  0  0  0  0  0  0
    0.8381   -1.8801    2.1380 H   0  0  0  0  0  0  0  0  0  0  0  0
    1.1532   -2.4457    0.4289 H   0  0  0  0  0  0  0  0  0  0  0  0
   -0.8535   -0.7845    2.0059 H   0  0  0  0  0  0  0  0  0  0  0  0
   -2.1644    1.0194    1.7006 H   0  0  0  0  0  0  0  0  0  0  0  0
   -0.7301    1.8005    1.0149 H   0  0  0  0  0  0  0  0  0  0  0  0
   -3.9438    0.7208    0.7348 H   0  0  0  0  0  0  0  0  0  0  0  0
   -4.1218    0.8779   -1.0199 H   0  0  0  0  0  0  0  0  0  0  0  0
   -3.7352    2.3644   -0.0530 H   0  0  0  0  0  0  0  0  0  0  0  0
   -1.4554   -0.3045   -1.9255 H   0  0  0  0  0  0  0  0  0  0  0  0
   -3.0670   -0.7191   -1.2679 H   0  0  0  0  0  0  0  0  0  0  0  0
   -0.8851   -2.0690   -0.4346 H   0  0  0  0  0  0  0  0  0  0  0  0
   -2.7449   -1.3501    1.5817 H   0  0  0  0  0  0  0  0  0  0  0  0
  1  2  1  0
  2  3  1  0
  2  4  1  0
  4  5  1  0
  5  6  1  0
  5  7  1  0
  7  8  1  0
  8  9  1  0
  9 10  1  0
  9 11  1  0
 11 12  1  0
 12 13  1  0
 12  7  1  0
  1 14  1  0
  1 15  1  0
  1 16  1  0
  2 17  1  6
  3 18  1  0
  3 19  1  0
  4 20  1  0
  4 21  1  0
  6 22  1  0
  6 23  1  0
  6 24  1  0
  7 25  1  1
  8 26  1  0
  8 27  1  0
 10 28  1  0
 10 29  1  0
 10 30  1  0
 11 31  1  0
 11 32  1  0
 12 33  1  6
 13 34  1  0
M  END
$$$$

     RDKit          3D

 34 34  0  0  0  0  0  0  0  0999 V2000
   -2.5653   -0.9732    1.2956 C   0  0  0  0  0  0  0  0  0  0  0  0
   -2.1733   -0.7994   -0.1842 C   0  0  1  0  0  0  0  0  0  0  0  0
   -3.4728   -0.9814   -0.9032 N   0  0  0  0  0  0  0  0  0  0  0  0
   -1.6899    0.5849   -0.4582 C   0  0  0  0  0  0  0  0  0  0  0  0
   -0.5739    1.0984    0.1795 N   0  0  0  0  0  0  0  0  0  0  0  0
   -0.4364    2.5535    0.0210 C   0  0  0  0  0  0  0  0  0  0  0  0
    0.6897    0.5331    0.1759 C   0  0  1  0  0  0  0  0  0  0  0  0
    0.9868   -0.7335    0.8896 C   0  0  0  0  0  0  0  0  0  0  0  0
    2.3200   -1.1414    0.3993 N   0  0  0  0  0  0  0  0  0  0  0  0
    3.2823   -0.6975    1.3932 C   0  0  0  0  0  0  0  0  0  0  0  0
    2.5080   -0.4465   -0.8733 C   0  0  0  0  0  0  0  0  0  0  0  0
    1.1350    0.0852   -1.2387 C   0  0  2  0  0  0  0  0  0  0  0  0
    1.1186    1.0824   -2.1631 O   0  0  0  0  0  0  0  0  0  0  0  0
   -1.8961   -1.7094    1.7619 H   0  0  0  0  0  0  0  0  0  0  0  0
   -2.3914    0.0235    1.7822 H   0  0  0  0  0  0  0  0  0  0  0  0
   -3.6289   -1.2529    1.4003 H   0  0  0  0  0  0  0  0  0  0  0  0
   -1.5780   -1.6245   -0.5396 H   0  0  0  0  0  0  0  0  0  0  0  0
   -3.9119   -1.8268   -0.4457 H   0  0  0  0  0  0  0  0  0  0  0  0
   -3.2673   -1.1665   -1.9097 H   0  0  0  0  0  0  0  0  0  0  0  0
   -2.5692    1.2671   -0.2371 H   0  0  0  0  0  0  0  0  0  0  0  0
   -1.6197    0.6439   -1.5953 H   0  0  0  0  0  0  0  0  0  0  0  0
    0.6258    2.8239   -0.1389 H   0  0  0  0  0  0  0  0  0  0  0  0
   -0.7287    3.0646    1.0012 H   0  0  0  0  0  0  0  0  0  0  0  0
   -1.0579    2.9589   -0.7827 H   0  0  0  0  0  0  0  0  0  0  0  0
    1.5034    1.2859    0.4548 H   0  0  0  0  0  0  0  0  0  0  0  0
    1.0317   -0.5939    2.0011 H   0  0  0  0  0  0  0  0  0  0  0  0
    0.3133   -1.5295    0.6021 H   0  0  0  0  0  0  0  0  0  0  0  0
    3.2168   -1.4164    2.2421 H   0  0  0  0  0  0  0  0  0  0  0  0
    4.2925   -0.5426    1.0057 H   0  0  0  0  0  0  0  0  0  0  0  0
    2.9295    0.2841    1.7549 H   0  0  0  0  0  0  0  0  0  0  0  0
    3.2330    0.3780   -0.6685 H   0  0  0  0  0  0  0  0  0  0  0  0
    2.8852   -1.1542   -1.6630 H   0  0  0  0  0  0  0  0  0  0  0  0
    0.5342   -0.8142   -1.4793 H   0  0  0  0  0  0  0  0  0  0  0  0
    0.9550    0.7365   -3.0800 H   0  0  0  0  0  0  0  0  0  0  0  0
  1  2  1  0
  2  3  1  0
  2  4  1  0
  4  5  1  0
  5  6  1  0
  5  7  1  0
  7  8  1  0
  8  9  1  0
  9 10  1  0
  9 11  1  0
 11 12  1  0
 12 13  1  0
 12  7  1  0
  1 14  1  0
  1 15  1  0
  1 16  1  0
  2 17  1  6
  3 18  1  0
  3 19  1  0
  4 20  1  0
  4 21  1  0
  6 22  1  0
  6 23  1  0
  6 24  1  0
  7 25  1  1
  8 26  1  0
  8 27  1  0
 10 28  1  0
 10 29  1  0
 10 30  1  0
 11 31  1  0
 11 32  1  0
 12 33  1  6
 13 34  1  0
M  END
$$$$

     RDKit          3D

 34 34  0  0  0  0  0  0  0  0999 V2000
    2.8842    1.0747    1.0659 C   0  0  0  0  0  0  0  0  0  0  0  0
    2.8830    0.4149   -0.2950 C   0  0  1  0  0  0  0  0  0  0  0  0
    3.5541   -0.8407   -0.2932 N   0  0  0  0  0  0  0  0  0  0  0  0
    1.4966    0.3758   -0.8916 C   0  0  0  0  0  0  0  0  0  0  0  0
    0.5682   -0.3614   -0.0609 N   0  0  0  0  0  0  0  0  0  0  0  0
    0.9447   -1.7879   -0.0707 C   0  0  0  0  0  0  0  0  0  0  0  0
   -0.7587   -0.3004   -0.5733 C   0  0  1  0  0  0  0  0  0  0  0  0
   -1.7247   -1.0183    0.3650 C   0  0  0  0  0  0  0  0  0  0  0  0
   -2.5724   -0.0087    0.9522 N   0  0  0  0  0  0  0  0  0  0  0  0
   -3.9026   -0.0408    0.3692 C   0  0  0  0  0  0  0  0  0  0  0  0
   -1.9201    1.2788    0.6959 C   0  0  0  0  0  0  0  0  0  0  0  0
   -1.3895    1.0314   -0.6962 C   0  0  2  0  0  0  0  0  0  0  0  0
   -2.5358    0.8721   -1.5127 O   0  0  0  0  0  0  0  0  0  0  0  0
    3.8020    1.7047    1.2282 H   0  0  0  0  0  0  0  0  0  0  0  0
    2.9840    0.2598    1.8330 H   0  0  0  0  0  0  0  0  0  0  0  0
    1.9857    1.6897    1.2351 H   0  0  0  0  0  0  0  0  0  0  0  0
    3.4794    1.1070   -0.9610 H   0  0  0  0  0  0  0  0  0  0  0  0
    4.1068   -0.9904   -1.1881 H   0  0  0  0  0  0  0  0  0  0  0  0
    4.3048   -0.8013    0.4532 H   0  0  0  0  0  0  0  0  0  0  0  0
    1.5491   -0.0471   -1.8975 H   0  0  0  0  0  0  0  0  0  0  0  0
    1.1548    1.4322   -0.9185 H   0  0  0  0  0  0  0  0  0  0  0  0
    0.0451   -2.4342   -0.1234 H   0  0  0  0  0  0  0  0  0  0  0  0
    1.5058   -2.0731    0.8249 H   0  0  0  0  0  0  0  0  0  0  0  0
    1.5108   -2.0063   -1.0199 H   0  0  0  0  0  0  0  0  0  0  0  0
   -0.7937   -0.7851   -1.5942 H   0  0  0  0  0  0  0  0  0  0  0  0
   -1.1962   -1.5165    1.2026 H   0  0  0  0  0  0  0  0  0  0  0  0
   -2.3501   -1.7102   -0.2370 H   0  0  0  0  0  0  0  0  0  0  0  0
   -4.6051   -0.4360    1.1581 H   0  0  0  0  0  0  0  0  0  0  0  0
   -3.9446   -0.7458   -0.4733 H   0  0  0  0  0  0  0  0  0  0  0  0
   -4.2209    0.9785    0.0974 H   0  0  0  0  0  0  0  0  0  0  0  0
   -1.0922    1.4339    1.3943 H   0  0  0  0  0  0  0  0  0  0  0  0
   -2.7068    2.0544    0.7299 H   0  0  0  0  0  0  0  0  0  0  0  0
   -0.8196    1.8381   -1.1219 H   0  0  0  0  0  0  0  0  0  0  0  0
   -2.2259    0.3584   -2.2959 H   0  0  0  0  0  0  0  0  0  0  0  0
  1  2  1  0
  2  3  1  0
  2  4  1  0
  4  5  1  0
  5  6  1  0
  5  7  1  0
  7  8  1  0
  8  9  1  0
  9 10  1  0
  9 11  1  0
 11 12  1  0
 12 13  1  0
 12  7  1  0
  1 14  1  0
  1 15  1  0
  1 16  1  0
  2 17  1  6
  3 18  1  0
  3 19  1  0
  4 20  1  0
  4 21  1  0
  6 22  1  0
  6 23  1  0
  6 24  1  0
  7 25  1  6
  8 26  1  0
  8 27  1  0
 10 28  1  0
 10 29  1  0
 10 30  1  0
 11 31  1  0
 11 32  1  0
 12 33  1  6
 13 34  1  0
M  END
$$$$

     RDKit          3D

 34 34  0  0  0  0  0  0  0  0999 V2000
   -3.7633    1.1715   -0.2729 C   0  0  0  0  0  0  0  0  0  0  0  0
   -2.8263    0.2823    0.5159 C   0  0  1  0  0  0  0  0  0  0  0  0
   -3.3331   -1.0404    0.6417 N   0  0  0  0  0  0  0  0  0  0  0  0
   -1.4664    0.3798   -0.0994 C   0  0  0  0  0  0  0  0  0  0  0  0
   -0.4703   -0.4315    0.5686 N   0  0  0  0  0  0  0  0  0  0  0  0
   -0.6804   -1.8344    0.4105 C   0  0  0  0  0  0  0  0  0  0  0  0
    0.8022    0.0675    0.2465 C   0  0  1  0  0  0  0  0  0  0  0  0
    1.9492   -0.5256    1.0258 C   0  0  0  0  0  0  0  0  0  0  0  0
    3.1289   -0.1559    0.2653 N   0  0  0  0  0  0  0  0  0  0  0  0
    3.9368    0.8177    0.9634 C   0  0  0  0  0  0  0  0  0  0  0  0
    2.7051    0.3960   -0.9805 C   0  0  0  0  0  0  0  0  0  0  0  0
    1.2853   -0.1679   -1.1552 C   0  0  2  0  0  0  0  0  0  0  0  0
    0.5975    0.4988   -2.1329 O   0  0  0  0  0  0  0  0  0  0  0  0
   -4.4439    1.7447    0.4011 H   0  0  0  0  0  0  0  0  0  0  0  0
   -3.2070    1.9278   -0.8645 H   0  0  0  0  0  0  0  0  0  0  0  0
   -4.3449    0.5593   -1.0020 H   0  0  0  0  0  0  0  0  0  0  0  0
   -2.7497    0.7652    1.5353 H   0  0  0  0  0  0  0  0  0  0  0  0
   -3.8312   -1.1178    1.5624 H   0  0  0  0  0  0  0  0  0  0  0  0
   -4.0647   -1.2041   -0.0895 H   0  0  0  0  0  0  0  0  0  0  0  0
   -1.0997    1.4254   -0.0817 H   0  0  0  0  0  0  0  0  0  0  0  0
   -1.4758    0.0587   -1.1577 H   0  0  0  0  0  0  0  0  0  0  0  0
    0.2372   -2.4162    0.1995 H   0  0  0  0  0  0  0  0  0  0  0  0
   -1.4054   -1.9623   -0.4488 H   0  0  0  0  0  0  0  0  0  0  0  0
   -1.1503   -2.3273    1.2963 H   0  0  0  0  0  0  0  0  0  0  0  0
    0.8316    1.1638    0.4186 H   0  0  0  0  0  0  0  0  0  0  0  0
    2.0124   -0.1283    2.0606 H   0  0  0  0  0  0  0  0  0  0  0  0
    1.9187   -1.6306    1.0435 H   0  0  0  0  0  0  0  0  0  0  0  0
    4.9492    0.3523    1.0975 H   0  0  0  0  0  0  0  0  0  0  0  0
    4.0888    1.7538    0.4240 H   0  0  0  0  0  0  0  0  0  0  0  0
    3.5333    1.0490    1.9810 H   0  0  0  0  0  0  0  0  0  0  0  0
    2.5708    1.4964   -0.8845 H   0  0  0  0  0  0  0  0  0  0  0  0
    3.3532    0.1334   -1.8362 H   0  0  0  0  0  0  0  0  0  0  0  0
    1.4478   -1.2544   -1.3775 H   0  0  0  0  0  0  0  0  0  0  0  0
    0.9643    0.1534   -3.0076 H   0  0  0  0  0  0  0  0  0  0  0  0
  1  2  1  0
  2  3  1  0
  2  4  1  0
  4  5  1  0
  5  6  1  0
  5  7  1  0
  7  8  1  0
  8  9  1  0
  9 10  1  0
  9 11  1  0
 11 12  1  0
 12 13  1  0
 12  7  1  0
  1 14  1  0
  1 15  1  0
  1 16  1  0
  2 17  1  1
  3 18  1  0
  3 19  1  0
  4 20  1  0
  4 21  1  0
  6 22  1  0
  6 23  1  0
  6 24  1  0
  7 25  1  1
  8 26  1  0
  8 27  1  0
 10 28  1  0
 10 29  1  0
 10 30  1  0
 11 31  1  0
 11 32  1  0
 12 33  1  6
 13 34  1  0
M  END
$$$$

     RDKit          3D

 34 34  0  0  0  0  0  0  0  0999 V2000
   -3.3770    1.4865    0.1730 C   0  0  0  0  0  0  0  0  0  0  0  0
   -2.5048    0.2452    0.3205 C   0  0  1  0  0  0  0  0  0  0  0  0
   -3.3547   -0.8761   -0.0913 N   0  0  0  0  0  0  0  0  0  0  0  0
   -1.3553    0.3569   -0.6865 C   0  0  0  0  0  0  0  0  0  0  0  0
   -0.4965   -0.7365   -0.6305 N   0  0  0  0  0  0  0  0  0  0  0  0
   -0.9515   -2.0061   -1.0583 C   0  0  0  0  0  0  0  0  0  0  0  0
    0.8378   -0.5981   -0.2862 C   0  0  1  0  0  0  0  0  0  0  0  0
    1.6699    0.2445   -1.2572 C   0  0  0  0  0  0  0  0  0  0  0  0
    2.7377    0.7716   -0.4747 N   0  0  0  0  0  0  0  0  0  0  0  0
    4.0403    0.6018   -1.0469 C   0  0  0  0  0  0  0  0  0  0  0  0
    2.6341    0.2992    0.8785 C   0  0  0  0  0  0  0  0  0  0  0  0
    1.1374    0.0975    1.0181 C   0  0  2  0  0  0  0  0  0  0  0  0
    0.8154   -0.6586    2.1399 O   0  0  0  0  0  0  0  0  0  0  0  0
   -2.8425    2.3253    0.6745 H   0  0  0  0  0  0  0  0  0  0  0  0
   -4.3399    1.2568    0.6703 H   0  0  0  0  0  0  0  0  0  0  0  0
   -3.4911    1.6987   -0.8903 H   0  0  0  0  0  0  0  0  0  0  0  0
   -2.1563    0.1532    1.3521 H   0  0  0  0  0  0  0  0  0  0  0  0
   -4.0577   -1.1056    0.6383 H   0  0  0  0  0  0  0  0  0  0  0  0
   -3.8239   -0.6303   -1.0077 H   0  0  0  0  0  0  0  0  0  0  0  0
   -0.9258    1.3498   -0.5650 H   0  0  0  0  0  0  0  0  0  0  0  0
   -1.8689    0.3576   -1.6877 H   0  0  0  0  0  0  0  0  0  0  0  0
   -1.5997   -2.0020   -1.9580 H   0  0  0  0  0  0  0  0  0  0  0  0
   -0.0578   -2.6205   -1.3673 H   0  0  0  0  0  0  0  0  0  0  0  0
   -1.3925   -2.5483   -0.2075 H   0  0  0  0  0  0  0  0  0  0  0  0
    1.3375   -1.5835   -0.2472 H   0  0  0  0  0  0  0  0  0  0  0  0
    1.9979   -0.3677   -2.1234 H   0  0  0  0  0  0  0  0  0  0  0  0
    1.0107    1.0757   -1.5689 H   0  0  0  0  0  0  0  0  0  0  0  0
    3.9757    0.8161   -2.1213 H   0  0  0  0  0  0  0  0  0  0  0  0
    4.6898    1.4101   -0.6207 H   0  0  0  0  0  0  0  0  0  0  0  0
    4.4695   -0.3927   -0.8831 H   0  0  0  0  0  0  0  0  0  0  0  0
    3.1719   -0.6450    1.0737 H   0  0  0  0  0  0  0  0  0  0  0  0
    2.9736    1.1317    1.5382 H   0  0  0  0  0  0  0  0  0  0  0  0
    0.7054    1.1188    1.0718 H   0  0  0  0  0  0  0  0  0  0  0  0
    0.3915   -0.0259    2.8019 H   0  0  0  0  0  0  0  0  0  0  0  0
  1  2  1  0
  2  3  1  0
  2  4  1  0
  4  5  1  0
  5  6  1  0
  5  7  1  0
  7  8  1  0
  8  9  1  0
  9 10  1  0
  9 11  1  0
 11 12  1  0
 12 13  1  0
 12  7  1  0
  1 14  1  0
  1 15  1  0
  1 16  1  0
  2 17  1  1
  3 18  1  0
  3 19  1  0
  4 20  1  0
  4 21  1  0
  6 22  1  0
  6 23  1  0
  6 24  1  0
  7 25  1  1
  8 26  1  0
  8 27  1  0
 10 28  1  0
 10 29  1  0
 10 30  1  0
 11 31  1  0
 11 32  1  0
 12 33  1  1
 13 34  1  0
M  END
$$$$

     RDKit          3D

 34 34  0  0  0  0  0  0  0  0999 V2000
    3.3700   -0.6702    1.1064 C   0  0  0  0  0  0  0  0  0  0  0  0
    2.9584    0.6233    0.4877 C   0  0  1  0  0  0  0  0  0  0  0  0
    3.5442    0.8197   -0.8229 N   0  0  0  0  0  0  0  0  0  0  0  0
    1.4774    0.8308    0.4556 C   0  0  0  0  0  0  0  0  0  0  0  0
    0.6955   -0.1056   -0.2348 N   0  0  0  0  0  0  0  0  0  0  0  0
    0.7653   -0.1896   -1.6373 C   0  0  0  0  0  0  0  0  0  0  0  0
   -0.5927   -0.3675    0.3329 C   0  0  1  0  0  0  0  0  0  0  0  0
   -1.4896    0.8674    0.3481 C   0  0  0  0  0  0  0  0  0  0  0  0
   -2.7387    0.2667    0.7776 N   0  0  0  0  0  0  0  0  0  0  0  0
   -3.8776    1.0996    0.5462 C   0  0  0  0  0  0  0  0  0  0  0  0
   -2.8197   -1.0356    0.1619 C   0  0  0  0  0  0  0  0  0  0  0  0
   -1.4510   -1.2860   -0.4893 C   0  0  2  0  0  0  0  0  0  0  0  0
   -1.0912   -2.6240   -0.3649 O   0  0  0  0  0  0  0  0  0  0  0  0
    4.1684   -0.5434    1.8629 H   0  0  0  0  0  0  0  0  0  0  0  0
    3.8031   -1.3725    0.3481 H   0  0  0  0  0  0  0  0  0  0  0  0
    2.5248   -1.1722    1.6310 H   0  0  0  0  0  0  0  0  0  0  0  0
    3.4583    1.4286    1.1232 H   0  0  0  0  0  0  0  0  0  0  0  0
    4.5640    0.6154   -0.7666 H   0  0  0  0  0  0  0  0  0  0  0  0
    3.3076    1.7307   -1.2356 H   0  0  0  0  0  0  0  0  0  0  0  0
    1.1477    0.8306    1.5381 H   0  0  0  0  0  0  0  0  0  0  0  0
    1.2006    1.8547    0.1043 H   0  0  0  0  0  0  0  0  0  0  0  0
    1.7319    0.0868   -2.0496 H   0  0  0  0  0  0  0  0  0  0  0  0
    0.5782   -1.2463   -1.9594 H   0  0  0  0  0  0  0  0  0  0  0  0
    0.0126    0.4223   -2.1817 H   0  0  0  0  0  0  0  0  0  0  0  0
   -0.5422   -0.7742    1.3559 H   0  0  0  0  0  0  0  0  0  0  0  0
   -1.5890    1.2206   -0.7018 H   0  0  0  0  0  0  0  0  0  0  0  0
   -1.1770    1.6258    1.0608 H   0  0  0  0  0  0  0  0  0  0  0  0
   -4.7900    0.4814    0.6731 H   0  0  0  0  0  0  0  0  0  0  0  0
   -3.9360    1.8772    1.3555 H   0  0  0  0  0  0  0  0  0  0  0  0
   -3.8669    1.6120   -0.4436 H   0  0  0  0  0  0  0  0  0  0  0  0
   -3.6307   -1.1037   -0.5727 H   0  0  0  0  0  0  0  0  0  0  0  0
   -2.8889   -1.7829    0.9804 H   0  0  0  0  0  0  0  0  0  0  0  0
   -1.5714   -0.9743   -1.5381 H   0  0  0  0  0  0  0  0  0  0  0  0
   -1.2556   -3.0454   -1.2511 H   0  0  0  0  0  0  0  0  0  0  0  0
  1  2  1  0
  2  3  1  0
  2  4  1  0
  4  5  1  0
  5  6  1  0
  5  7  1  0
  7  8  1  0
  8  9  1  0
  9 10  1  0
  9 11  1  0
 11 12  1  0
 12 13  1  0
 12  7  1  0
  1 14  1  0
  1 15  1  0
  1 16  1  0
  2 17  1  1
  3 18  1  0
  3 19  1  0
  4 20  1  0
  4 21  1  0
  6 22  1  0
  6 23  1  0
  6 24  1  0
  7 25  1  1
  8 26  1  0
  8 27  1  0
 10 28  1  0
 10 29  1  0
 10 30  1  0
 11 31  1  0
 11 32  1  0
 12 33  1  6
 13 34  1  0
M  END
$$$$
