
     RDKit          3D

 27 28  0  0  0  0  0  0  0  0999 V2000
    4.9670    0.6290    0.0190 C   0  0  0  0  0  0  0  0  0  0  0  0
    3.5864    0.2448   -0.2816 N   0  0  0  0  0  0  0  0  0  0  0  0
    2.9315    0.4256   -1.4063 N   0  0  0  0  0  0  0  0  0  0  0  0
    1.6996   -0.0582   -1.2930 N   0  0  0  0  0  0  0  0  0  0  0  0
    1.5710   -0.5620   -0.0550 C   0  0  0  0  0  0  0  0  0  0  0  0
    0.5116   -1.1210    0.4289 N   0  0  0  0  0  0  0  0  0  0  0  0
   -0.7064   -1.2737   -0.3401 C   0  0  0  0  0  0  0  0  0  0  0  0
   -1.8978   -0.8500    0.4864 C   0  0  1  0  0  0  0  0  0  0  0  0
   -1.7312    0.6002    0.8820 C   0  0  0  0  0  0  0  0  0  0  0  0
   -2.6115    1.2858   -0.1689 C   0  0  0  0  0  0  0  0  0  0  0  0
   -3.7794    0.3118   -0.2250 C   0  0  0  0  0  0  0  0  0  0  0  0
   -3.1394   -0.9828   -0.1933 N   0  0  0  0  0  0  0  0  0  0  0  0
    2.7553   -0.3588    0.5446 N   0  0  0  0  0  0  0  0  0  0  0  0
    5.5878    0.5394   -0.8871 H   0  0  0  0  0  0  0  0  0  0  0  0
    4.9376    1.6817    0.3625 H   0  0  0  0  0  0  0  0  0  0  0  0
    5.3262   -0.0213    0.8370 H   0  0  0  0  0  0  0  0  0  0  0  0
   -0.6139   -0.6942   -1.2755 H   0  0  0  0  0  0  0  0  0  0  0  0
   -0.7739   -2.3374   -0.6275 H   0  0  0  0  0  0  0  0  0  0  0  0
   -1.9073   -1.5054    1.3854 H   0  0  0  0  0  0  0  0  0  0  0  0
   -0.6912    0.9459    0.7834 H   0  0  0  0  0  0  0  0  0  0  0  0
   -2.1542    0.7186    1.8920 H   0  0  0  0  0  0  0  0  0  0  0  0
   -2.8974    2.2605    0.2239 H   0  0  0  0  0  0  0  0  0  0  0  0
   -2.0851    1.2882   -1.1237 H   0  0  0  0  0  0  0  0  0  0  0  0
   -4.3363    0.4452    0.7338 H   0  0  0  0  0  0  0  0  0  0  0  0
   -4.4213    0.4686   -1.0975 H   0  0  0  0  0  0  0  0  0  0  0  0
   -3.0837   -1.4332   -1.1245 H   0  0  0  0  0  0  0  0  0  0  0  0
    2.9559   -0.6475    1.5203 H   0  0  0  0  0  0  0  0  0  0  0  0
  1  2  1  0
  2  3  1  0
  3  4  2  0
  4  5  1  0
  5  6  2  3
  6  7  1  0
  7  8  1  0
  8  9  1  0
  9 10  1  0
 10 11  1  0
 11 12  1  0
  5 13  1  0
 13  2  1  0
 12  8  1  0
  1 14  1  0
  1 15  1  0
  1 16  1  0
  7 17  1  0
  7 18  1  0
  8 19  1  1
  9 20  1  0
  9 21  1  0
 10 22  1  0
 10 23  1  0
 11 24  1  0
 11 25  1  0
 12 26  1  0
 13 27  1  0
M  END
$$$$

     RDKit          3D

 27 28  0  0  0  0  0  0  0  0999 V2000
    4.9788    0.8518   -0.7500 C   0  0  0  0  0  0  0  0  0  0  0  0
    3.6294    0.3021   -0.5851 N   0  0  0  0  0  0  0  0  0  0  0  0
    2.8864   -0.2731   -1.5237 N   0  0  0  0  0  0  0  0  0  0  0  0
    1.7182   -0.6524   -1.0161 N   0  0  0  0  0  0  0  0  0  0  0  0
    1.7074   -0.3126    0.2856 C   0  0  0  0  0  0  0  0  0  0  0  0
    0.7651   -0.4932    1.1681 N   0  0  0  0  0  0  0  0  0  0  0  0
   -0.4654   -1.1265    0.8197 C   0  0  0  0  0  0  0  0  0  0  0  0
   -1.3735   -0.2724   -0.0279 C   0  0  1  0  0  0  0  0  0  0  0  0
   -2.6277   -1.0948   -0.3038 C   0  0  0  0  0  0  0  0  0  0  0  0
   -3.5538   -0.0100   -0.8159 C   0  0  0  0  0  0  0  0  0  0  0  0
   -3.1986    1.1536    0.0609 C   0  0  0  0  0  0  0  0  0  0  0  0
   -1.9082    0.8616    0.6604 N   0  0  0  0  0  0  0  0  0  0  0  0
    2.8978    0.2715    0.5146 N   0  0  0  0  0  0  0  0  0  0  0  0
    5.4871    0.4079   -1.6068 H   0  0  0  0  0  0  0  0  0  0  0  0
    4.8669    1.9521   -0.8048 H   0  0  0  0  0  0  0  0  0  0  0  0
    5.5098    0.6342    0.2158 H   0  0  0  0  0  0  0  0  0  0  0  0
   -0.9952   -1.4891    1.7098 H   0  0  0  0  0  0  0  0  0  0  0  0
   -0.2413   -2.0441    0.2021 H   0  0  0  0  0  0  0  0  0  0  0  0
   -0.9257    0.0427   -0.9680 H   0  0  0  0  0  0  0  0  0  0  0  0
   -2.4456   -1.8816   -1.0579 H   0  0  0  0  0  0  0  0  0  0  0  0
   -2.9637   -1.4856    0.6753 H   0  0  0  0  0  0  0  0  0  0  0  0
   -3.2472    0.1690   -1.8862 H   0  0  0  0  0  0  0  0  0  0  0  0
   -4.6199   -0.3004   -0.7354 H   0  0  0  0  0  0  0  0  0  0  0  0
   -3.1594    2.0819   -0.5679 H   0  0  0  0  0  0  0  0  0  0  0  0
   -3.9911    1.2864    0.8299 H   0  0  0  0  0  0  0  0  0  0  0  0
   -1.9473    0.7648    1.6888 H   0  0  0  0  0  0  0  0  0  0  0  0
    3.2168    0.6561    1.4376 H   0  0  0  0  0  0  0  0  0  0  0  0
  1  2  1  0
  2  3  1  0
  3  4  2  0
  4  5  1  0
  5  6  2  3
  6  7  1  0
  7  8  1  0
  8  9  1  0
  9 10  1  0
 10 11  1  0
 11 12  1  0
  5 13  1  0
 13  2  1  0
 12  8  1  0
  1 14  1  0
  1 15  1  0
  1 16  1  0
  7 17  1  0
  7 18  1  0
  8 19  1  6
  9 20  1  0
  9 21  1  0
 10 22  1  0
 10 23  1  0
 11 24  1  0
 11 25  1  0
 12 26  1  0
 13 27  1  0
M  END
$$$$

     RDKit          3D

 27 28  0  0  0  0  0  0  0  0999 V2000
    4.8089   -0.1410   -0.7169 C   0  0  0  0  0  0  0  0  0  0  0  0
    3.5612    0.0713   -0.0158 N   0  0  0  0  0  0  0  0  0  0  0  0
    3.3985    0.2125    1.2880 N   0  0  0  0  0  0  0  0  0  0  0  0
    2.0924    0.3887    1.5319 N   0  0  0  0  0  0  0  0  0  0  0  0
    1.4267    0.3582    0.3736 C   0  0  0  0  0  0  0  0  0  0  0  0
    0.1509    0.4952    0.2376 N   0  0  0  0  0  0  0  0  0  0  0  0
   -0.4127    0.4391   -1.0675 C   0  0  0  0  0  0  0  0  0  0  0  0
   -1.8861    0.1399   -1.0989 C   0  0  1  0  0  0  0  0  0  0  0  0
   -2.2222   -1.1837   -0.4719 C   0  0  0  0  0  0  0  0  0  0  0  0
   -2.6683   -0.7632    0.9200 C   0  0  0  0  0  0  0  0  0  0  0  0
   -3.4394    0.5190    0.5916 C   0  0  0  0  0  0  0  0  0  0  0  0
   -2.6956    1.1363   -0.4726 N   0  0  0  0  0  0  0  0  0  0  0  0
    2.3690    0.1581   -0.5815 N   0  0  0  0  0  0  0  0  0  0  0  0
    5.5343   -0.6905   -0.0761 H   0  0  0  0  0  0  0  0  0  0  0  0
    4.6239   -0.8106   -1.6001 H   0  0  0  0  0  0  0  0  0  0  0  0
    5.2370    0.8075   -1.0570 H   0  0  0  0  0  0  0  0  0  0  0  0
   -0.1552    1.3494   -1.6310 H   0  0  0  0  0  0  0  0  0  0  0  0
    0.0910   -0.4051   -1.6130 H   0  0  0  0  0  0  0  0  0  0  0  0
   -2.1816    0.0933   -2.1761 H   0  0  0  0  0  0  0  0  0  0  0  0
   -1.4003   -1.9003   -0.4606 H   0  0  0  0  0  0  0  0  0  0  0  0
   -3.1317   -1.5925   -0.9851 H   0  0  0  0  0  0  0  0  0  0  0  0
   -3.3405   -1.5294    1.3454 H   0  0  0  0  0  0  0  0  0  0  0  0
   -1.7758   -0.5570    1.5314 H   0  0  0  0  0  0  0  0  0  0  0  0
   -4.4168    0.1831    0.1716 H   0  0  0  0  0  0  0  0  0  0  0  0
   -3.5446    1.1466    1.4900 H   0  0  0  0  0  0  0  0  0  0  0  0
   -2.1734    1.9853   -0.1738 H   0  0  0  0  0  0  0  0  0  0  0  0
    2.1503    0.0895   -1.5881 H   0  0  0  0  0  0  0  0  0  0  0  0
  1  2  1  0
  2  3  1  0
  3  4  2  0
  4  5  1  0
  5  6  2  3
  6  7  1  0
  7  8  1  0
  8  9  1  0
  9 10  1  0
 10 11  1  0
 11 12  1  0
  5 13  1  0
 13  2  1  0
 12  8  1  0
  1 14  1  0
  1 15  1  0
  1 16  1  0
  7 17  1  0
  7 18  1  0
  8 19  1  6
  9 20  1  0
  9 21  1  0
 10 22  1  0
 10 23  1  0
 11 24  1  0
 11 25  1  0
 12 26  1  0
 13 27  1  0
M  END
$$$$

     RDKit          3D

 27 28  0  0  0  0  0  0  0  0999 V2000
    5.2609    0.1257   -0.6708 C   0  0  0  0  0  0  0  0  0  0  0  0
    3.9320   -0.0440   -0.0870 N   0  0  0  0  0  0  0  0  0  0  0  0
    3.6312   -0.4917    1.1016 N   0  0  0  0  0  0  0  0  0  0  0  0
    2.3241   -0.5089    1.2897 N   0  0  0  0  0  0  0  0  0  0  0  0
    1.7745   -0.0496    0.1645 C   0  0  0  0  0  0  0  0  0  0  0  0
    0.5063    0.0907   -0.0584 N   0  0  0  0  0  0  0  0  0  0  0  0
   -0.4961   -0.2468    0.9228 C   0  0  0  0  0  0  0  0  0  0  0  0
   -1.7296    0.6094    0.6585 C   0  0  1  0  0  0  0  0  0  0  0  0
   -2.2186    0.2992   -0.7409 C   0  0  0  0  0  0  0  0  0  0  0  0
   -3.3690   -0.6391   -0.4375 C   0  0  0  0  0  0  0  0  0  0  0  0
   -3.9940    0.1049    0.7484 C   0  0  0  0  0  0  0  0  0  0  0  0
   -2.7993    0.3313    1.5643 N   0  0  0  0  0  0  0  0  0  0  0  0
    2.7778    0.2358   -0.6825 N   0  0  0  0  0  0  0  0  0  0  0  0
    5.1600    0.7518   -1.5861 H   0  0  0  0  0  0  0  0  0  0  0  0
    5.8943    0.6654    0.0502 H   0  0  0  0  0  0  0  0  0  0  0  0
    5.7307   -0.8532   -0.9027 H   0  0  0  0  0  0  0  0  0  0  0  0
   -0.0955   -0.0588    1.9399 H   0  0  0  0  0  0  0  0  0  0  0  0
   -0.7405   -1.3284    0.8302 H   0  0  0  0  0  0  0  0  0  0  0  0
   -1.3839    1.6752    0.7368 H   0  0  0  0  0  0  0  0  0  0  0  0
   -1.4379   -0.1781   -1.3620 H   0  0  0  0  0  0  0  0  0  0  0  0
   -2.6231    1.2233   -1.1718 H   0  0  0  0  0  0  0  0  0  0  0  0
   -3.0108   -1.6060   -0.0406 H   0  0  0  0  0  0  0  0  0  0  0  0
   -4.0771   -0.7375   -1.2742 H   0  0  0  0  0  0  0  0  0  0  0  0
   -4.3344    1.0948    0.3941 H   0  0  0  0  0  0  0  0  0  0  0  0
   -4.7546   -0.4817    1.2573 H   0  0  0  0  0  0  0  0  0  0  0  0
   -2.6243   -0.6031    2.0414 H   0  0  0  0  0  0  0  0  0  0  0  0
    2.6969    0.6192   -1.6631 H   0  0  0  0  0  0  0  0  0  0  0  0
  1  2  1  0
  2  3  1  0
  3  4  2  0
  4  5  1  0
  5  6  2  3
  6  7  1  0
  7  8  1  0
  8  9  1  0
  9 10  1  0
 10 11  1  0
 11 12  1  0
  5 13  1  0
 13  2  1  0
 12  8  1  0
  1 14  1  0
  1 15  1  0
  1 16  1  0
  7 17  1  0
  7 18  1  0
  8 19  1  6
  9 20  1  0
  9 21  1  0
 10 22  1  0
 10 23  1  0
 11 24  1  0
 11 25  1  0
 12 26  1  0
 13 27  1  0
M  END
$$$$

     RDKit          3D

 27 28  0  0  0  0  0  0  0  0999 V2000
    4.6021   -0.2822    0.8224 C   0  0  0  0  0  0  0  0  0  0  0  0
    3.5353   -0.3964   -0.1812 N   0  0  0  0  0  0  0  0  0  0  0  0
    3.5919   -1.0289   -1.3350 N   0  0  0  0  0  0  0  0  0  0  0  0
    2.4375   -0.9141   -1.9706 N   0  0  0  0  0  0  0  0  0  0  0  0
    1.6432   -0.1817   -1.1727 C   0  0  0  0  0  0  0  0  0  0  0  0
    0.4360    0.1287   -1.4776 N   0  0  0  0  0  0  0  0  0  0  0  0
   -0.4072    0.9187   -0.6070 C   0  0  0  0  0  0  0  0  0  0  0  0
   -1.8234    0.3845   -0.7654 C   0  0  1  0  0  0  0  0  0  0  0  0
   -1.8450   -1.0530   -0.3721 C   0  0  0  0  0  0  0  0  0  0  0  0
   -2.8604   -1.1563    0.7445 C   0  0  0  0  0  0  0  0  0  0  0  0
   -3.1880    0.2693    1.1157 C   0  0  0  0  0  0  0  0  0  0  0  0
   -2.7495    1.1058    0.0437 N   0  0  0  0  0  0  0  0  0  0  0  0
    2.3258    0.1314   -0.0768 N   0  0  0  0  0  0  0  0  0  0  0  0
    4.4972    0.6147    1.4352 H   0  0  0  0  0  0  0  0  0  0  0  0
    4.5871   -1.1929    1.4445 H   0  0  0  0  0  0  0  0  0  0  0  0
    5.5634   -0.2004    0.2456 H   0  0  0  0  0  0  0  0  0  0  0  0
   -0.0451    0.8029    0.4383 H   0  0  0  0  0  0  0  0  0  0  0  0
   -0.4156    1.9933   -0.9060 H   0  0  0  0  0  0  0  0  0  0  0  0
   -2.0617    0.4749   -1.8510 H   0  0  0  0  0  0  0  0  0  0  0  0
   -2.1297   -1.7355   -1.1976 H   0  0  0  0  0  0  0  0  0  0  0  0
   -0.8572   -1.3830    0.0386 H   0  0  0  0  0  0  0  0  0  0  0  0
   -2.4570   -1.6518    1.6364 H   0  0  0  0  0  0  0  0  0  0  0  0
   -3.7543   -1.6933    0.3906 H   0  0  0  0  0  0  0  0  0  0  0  0
   -4.3030    0.3264    1.2295 H   0  0  0  0  0  0  0  0  0  0  0  0
   -2.7632    0.5586    2.0976 H   0  0  0  0  0  0  0  0  0  0  0  0
   -3.5291    1.5263   -0.5098 H   0  0  0  0  0  0  0  0  0  0  0  0
    1.9699    0.7027    0.7402 H   0  0  0  0  0  0  0  0  0  0  0  0
  1  2  1  0
  2  3  1  0
  3  4  2  0
  4  5  1  0
  5  6  2  3
  6  7  1  0
  7  8  1  0
  8  9  1  0
  9 10  1  0
 10 11  1  0
 11 12  1  0
  5 13  1  0
 13  2  1  0
 12  8  1  0
  1 14  1  0
  1 15  1  0
  1 16  1  0
  7 17  1  0
  7 18  1  0
  8 19  1  6
  9 20  1  0
  9 21  1  0
 10 22  1  0
 10 23  1  0
 11 24  1  0
 11 25  1  0
 12 26  1  0
 13 27  1  0
M  END
$$$$

     RDKit          3D

 27 28  0  0  0  0  0  0  0  0999 V2000
    4.5561    0.5796   -0.8482 C   0  0  0  0  0  0  0  0  0  0  0  0
    3.2492   -0.0447   -0.7005 N   0  0  0  0  0  0  0  0  0  0  0  0
    2.5458   -0.6897   -1.6271 N   0  0  0  0  0  0  0  0  0  0  0  0
    1.4271   -1.1006   -1.0987 N   0  0  0  0  0  0  0  0  0  0  0  0
    1.4169   -0.7090    0.1934 C   0  0  0  0  0  0  0  0  0  0  0  0
    0.4771   -0.9258    1.0552 N   0  0  0  0  0  0  0  0  0  0  0  0
   -0.6993   -1.6428    0.6828 C   0  0  0  0  0  0  0  0  0  0  0  0
   -1.8244   -0.7423    0.2374 C   0  0  1  0  0  0  0  0  0  0  0  0
   -2.2692    0.2261    1.2830 C   0  0  0  0  0  0  0  0  0  0  0  0
   -2.8194    1.3811    0.4715 C   0  0  0  0  0  0  0  0  0  0  0  0
   -2.6080    0.9606   -0.9734 C   0  0  0  0  0  0  0  0  0  0  0  0
   -1.3856    0.1509   -0.8345 N   0  0  0  0  0  0  0  0  0  0  0  0
    2.5659   -0.0470    0.4320 N   0  0  0  0  0  0  0  0  0  0  0  0
    4.5329    1.5435   -0.3041 H   0  0  0  0  0  0  0  0  0  0  0  0
    5.3185   -0.0996   -0.4411 H   0  0  0  0  0  0  0  0  0  0  0  0
    4.7375    0.6940   -1.9348 H   0  0  0  0  0  0  0  0  0  0  0  0
   -0.4974   -2.3375   -0.1716 H   0  0  0  0  0  0  0  0  0  0  0  0
   -1.0963   -2.2258    1.5556 H   0  0  0  0  0  0  0  0  0  0  0  0
   -2.7031   -1.3128   -0.1189 H   0  0  0  0  0  0  0  0  0  0  0  0
   -3.0992   -0.1601    1.9130 H   0  0  0  0  0  0  0  0  0  0  0  0
   -1.4627    0.5876    1.9244 H   0  0  0  0  0  0  0  0  0  0  0  0
   -2.2100    2.3052    0.6177 H   0  0  0  0  0  0  0  0  0  0  0  0
   -3.8593    1.6195    0.7004 H   0  0  0  0  0  0  0  0  0  0  0  0
   -3.4013    0.2344   -1.2652 H   0  0  0  0  0  0  0  0  0  0  0  0
   -2.4829    1.7938   -1.6578 H   0  0  0  0  0  0  0  0  0  0  0  0
   -1.2140   -0.3963   -1.7065 H   0  0  0  0  0  0  0  0  0  0  0  0
    2.8053    0.3580    1.3514 H   0  0  0  0  0  0  0  0  0  0  0  0
  1  2  1  0
  2  3  1  0
  3  4  2  0
  4  5  1  0
  5  6  2  3
  6  7  1  0
  7  8  1  0
  8  9  1  0
  9 10  1  0
 10 11  1  0
 11 12  1  0
  5 13  1  0
 13  2  1  0
 12  8  1  0
  1 14  1  0
  1 15  1  0
  1 16  1  0
  7 17  1  0
  7 18  1  0
  8 19  1  6
  9 20  1  0
  9 21  1  0
 10 22  1  0
 10 23  1  0
 11 24  1  0
 11 25  1  0
 12 26  1  0
 13 27  1  0
M  END
$$$$

     RDKit          3D

 27 28  0  0  0  0  0  0  0  0999 V2000
    5.2152    0.1394    0.5641 C   0  0  0  0  0  0  0  0  0  0  0  0
    3.8766   -0.2118    0.1041 N   0  0  0  0  0  0  0  0  0  0  0  0
    3.4370   -1.4024   -0.2787 N   0  0  0  0  0  0  0  0  0  0  0  0
    2.1698   -1.3011   -0.6206 N   0  0  0  0  0  0  0  0  0  0  0  0
    1.8039   -0.0166   -0.4487 C   0  0  0  0  0  0  0  0  0  0  0  0
    0.6149    0.4231   -0.6952 N   0  0  0  0  0  0  0  0  0  0  0  0
   -0.4488   -0.4139   -1.1809 C   0  0  0  0  0  0  0  0  0  0  0  0
   -1.5904   -0.3500   -0.2186 C   0  0  1  0  0  0  0  0  0  0  0  0
   -2.1437    1.0320   -0.0352 C   0  0  0  0  0  0  0  0  0  0  0  0
   -3.6035    0.7758    0.3564 C   0  0  0  0  0  0  0  0  0  0  0  0
   -3.7170   -0.7543    0.3708 C   0  0  0  0  0  0  0  0  0  0  0  0
   -2.7508   -1.0956   -0.6683 N   0  0  0  0  0  0  0  0  0  0  0  0
    2.8763    0.6356   -0.0003 N   0  0  0  0  0  0  0  0  0  0  0  0
    5.1595    0.3246    1.6478 H   0  0  0  0  0  0  0  0  0  0  0  0
    5.9324   -0.6820    0.3852 H   0  0  0  0  0  0  0  0  0  0  0  0
    5.5478    0.9963   -0.0337 H   0  0  0  0  0  0  0  0  0  0  0  0
   -0.7679   -0.1605   -2.2045 H   0  0  0  0  0  0  0  0  0  0  0  0
   -0.0677   -1.4593   -1.1797 H   0  0  0  0  0  0  0  0  0  0  0  0
   -1.2900   -0.7674    0.7589 H   0  0  0  0  0  0  0  0  0  0  0  0
   -2.1016    1.6422   -0.9553 H   0  0  0  0  0  0  0  0  0  0  0  0
   -1.6683    1.5691    0.8228 H   0  0  0  0  0  0  0  0  0  0  0  0
   -3.8438    1.1681    1.3467 H   0  0  0  0  0  0  0  0  0  0  0  0
   -4.2944    1.1158   -0.4480 H   0  0  0  0  0  0  0  0  0  0  0  0
   -3.3628   -1.1584    1.3412 H   0  0  0  0  0  0  0  0  0  0  0  0
   -4.7339   -1.0749    0.1128 H   0  0  0  0  0  0  0  0  0  0  0  0
   -3.1228   -0.6448   -1.5480 H   0  0  0  0  0  0  0  0  0  0  0  0
    2.8742    1.6713    0.2223 H   0  0  0  0  0  0  0  0  0  0  0  0
  1  2  1  0
  2  3  1  0
  3  4  2  0
  4  5  1  0
  5  6  2  3
  6  7  1  0
  7  8  1  0
  8  9  1  0
  9 10  1  0
 10 11  1  0
 11 12  1  0
  5 13  1  0
 13  2  1  0
 12  8  1  0
  1 14  1  0
  1 15  1  0
  1 16  1  0
  7 17  1  0
  7 18  1  0
  8 19  1  1
  9 20  1  0
  9 21  1  0
 10 22  1  0
 10 23  1  0
 11 24  1  0
 11 25  1  0
 12 26  1  0
 13 27  1  0
M  END
$$$$

     RDKit          3D

 27 28  0  0  0  0  0  0  0  0999 V2000
    5.1354    0.8019   -0.4271 C   0  0  0  0  0  0  0  0  0  0  0  0
    3.8047    0.2849   -0.2015 N   0  0  0  0  0  0  0  0  0  0  0  0
    3.4568   -0.9859   -0.3026 N   0  0  0  0  0  0  0  0  0  0  0  0
    2.1533   -1.0835   -0.0239 N   0  0  0  0  0  0  0  0  0  0  0  0
    1.6939    0.1268    0.2497 C   0  0  0  0  0  0  0  0  0  0  0  0
    0.4976    0.4587    0.5649 N   0  0  0  0  0  0  0  0  0  0  0  0
   -0.5143   -0.5569    0.6487 C   0  0  0  0  0  0  0  0  0  0  0  0
   -1.9060    0.0333    0.7202 C   0  0  1  0  0  0  0  0  0  0  0  0
   -2.2409    0.8670   -0.4752 C   0  0  0  0  0  0  0  0  0  0  0  0
   -3.3854    0.1239   -1.1366 C   0  0  0  0  0  0  0  0  0  0  0  0
   -3.4566   -1.2249   -0.4630 C   0  0  0  0  0  0  0  0  0  0  0  0
   -2.8955   -0.9976    0.8318 N   0  0  0  0  0  0  0  0  0  0  0  0
    2.7203    0.9812    0.1399 N   0  0  0  0  0  0  0  0  0  0  0  0
    5.1710    1.8973   -0.2978 H   0  0  0  0  0  0  0  0  0  0  0  0
    5.8267    0.2905    0.2857 H   0  0  0  0  0  0  0  0  0  0  0  0
    5.4236    0.5281   -1.4529 H   0  0  0  0  0  0  0  0  0  0  0  0
   -0.3611   -1.1390    1.5766 H   0  0  0  0  0  0  0  0  0  0  0  0
   -0.4519   -1.1685   -0.2729 H   0  0  0  0  0  0  0  0  0  0  0  0
   -1.9634    0.6460    1.6611 H   0  0  0  0  0  0  0  0  0  0  0  0
   -1.3714    0.8987   -1.1695 H   0  0  0  0  0  0  0  0  0  0  0  0
   -2.5585    1.8760   -0.1622 H   0  0  0  0  0  0  0  0  0  0  0  0
   -3.2075   -0.0112   -2.2188 H   0  0  0  0  0  0  0  0  0  0  0  0
   -4.3403    0.6673   -0.9426 H   0  0  0  0  0  0  0  0  0  0  0  0
   -2.9141   -1.9629   -1.0723 H   0  0  0  0  0  0  0  0  0  0  0  0
   -4.5257   -1.5120   -0.3389 H   0  0  0  0  0  0  0  0  0  0  0  0
   -2.5442   -1.8523    1.2986 H   0  0  0  0  0  0  0  0  0  0  0  0
    2.7535    2.0131    0.2779 H   0  0  0  0  0  0  0  0  0  0  0  0
  1  2  1  0
  2  3  1  0
  3  4  2  0
  4  5  1  0
  5  6  2  3
  6  7  1  0
  7  8  1  0
  8  9  1  0
  9 10  1  0
 10 11  1  0
 11 12  1  0
  5 13  1  0
 13  2  1  0
 12  8  1  0
  1 14  1  0
  1 15  1  0
  1 16  1  0
  7 17  1  0
  7 18  1  0
  8 19  1  1
  9 20  1  0
  9 21  1  0
 10 22  1  0
 10 23  1  0
 11 24  1  0
 11 25  1  0
 12 26  1  0
 13 27  1  0
M  END
$$$$
