
     RDKit          3D

 22 23  0  0  0  0  0  0  0  0999 V2000
   -4.1417    0.6375    0.0025 O   0  0  0  0  0  0  0  0  0  0  0  0
   -2.9224    0.5205   -0.2788 C   0  0  0  0  0  0  0  0  0  0  0  0
   -1.8201    1.2597    0.3843 C   0  0  0  0  0  0  0  0  0  0  0  0
   -0.6500    0.4286    0.0962 N   0  0  0  0  0  0  0  0  0  0  0  0
    0.5950    0.4465    0.8395 C   0  0  2  0  0  0  0  0  0  0  0  0
    1.7659    0.7013   -0.0658 C   0  0  0  0  0  0  0  0  0  0  0  0
    2.4289   -0.6119   -0.3215 C   0  0  0  0  0  0  0  0  0  0  0  0
    1.5431   -1.5912    0.2693 N   0  0  0  0  0  0  0  0  0  0  0  0
    0.8454   -0.9379    1.3156 C   0  0  0  0  0  0  0  0  0  0  0  0
    0.4999   -1.4382    2.4431 O   0  0  0  0  0  0  0  0  0  0  0  0
   -0.9729   -0.3756   -1.0267 C   0  0  0  0  0  0  0  0  0  0  0  0
   -0.1532   -1.0487   -1.7289 O   0  0  0  0  0  0  0  0  0  0  0  0
   -2.3709   -0.3304   -1.2725 N   0  0  0  0  0  0  0  0  0  0  0  0
   -1.9699    1.2300    1.4875 H   0  0  0  0  0  0  0  0  0  0  0  0
   -1.7002    2.2867    0.0059 H   0  0  0  0  0  0  0  0  0  0  0  0
    0.5662    1.1757    1.6709 H   0  0  0  0  0  0  0  0  0  0  0  0
    1.4602    1.1876   -1.0265 H   0  0  0  0  0  0  0  0  0  0  0  0
    2.4523    1.4209    0.4591 H   0  0  0  0  0  0  0  0  0  0  0  0
    3.4112   -0.7032    0.1887 H   0  0  0  0  0  0  0  0  0  0  0  0
    2.6209   -0.8132   -1.3934 H   0  0  0  0  0  0  0  0  0  0  0  0
    1.4154   -2.6110   -0.0008 H   0  0  0  0  0  0  0  0  0  0  0  0
   -2.9032   -0.8338   -2.0477 H   0  0  0  0  0  0  0  0  0  0  0  0
  1  2  2  0
  2  3  1  0
  3  4  1  0
  4  5  1  0
  5  6  1  0
  6  7  1  0
  7  8  1  0
  8  9  1  0
  9 10  2  0
  4 11  1  0
 11 12  2  0
 11 13  1  0
 13  2  1  0
  9  5  1  0
  3 14  1  0
  3 15  1  0
  5 16  1  1
  6 17  1  0
  6 18  1  0
  7 19  1  0
  7 20  1  0
  8 21  1  0
 13 22  1  0
M  END
$$$$

     RDKit          3D

 22 23  0  0  0  0  0  0  0  0999 V2000
    4.2868    0.2556    0.4576 O   0  0  0  0  0  0  0  0  0  0  0  0
    3.1411   -0.0700    0.0899 C   0  0  0  0  0  0  0  0  0  0  0  0
    1.9918    0.8402    0.0362 C   0  0  0  0  0  0  0  0  0  0  0  0
    0.8432    0.0313   -0.3257 N   0  0  0  0  0  0  0  0  0  0  0  0
   -0.4954    0.5344   -0.3820 C   0  0  2  0  0  0  0  0  0  0  0  0
   -1.4395   -0.2164    0.5571 C   0  0  0  0  0  0  0  0  0  0  0  0
   -2.7682    0.3352    0.0503 C   0  0  0  0  0  0  0  0  0  0  0  0
   -2.5555    0.2483   -1.3987 N   0  0  0  0  0  0  0  0  0  0  0  0
   -1.1617    0.3244   -1.6795 C   0  0  0  0  0  0  0  0  0  0  0  0
   -0.6677    0.2239   -2.8297 O   0  0  0  0  0  0  0  0  0  0  0  0
    1.3139   -1.2563   -0.5866 C   0  0  0  0  0  0  0  0  0  0  0  0
    0.6379   -2.2616   -0.9916 O   0  0  0  0  0  0  0  0  0  0  0  0
    2.7232   -1.3430   -0.3385 N   0  0  0  0  0  0  0  0  0  0  0  0
    2.0954    1.6460   -0.7297 H   0  0  0  0  0  0  0  0  0  0  0  0
    1.7478    1.2831    1.0396 H   0  0  0  0  0  0  0  0  0  0  0  0
   -0.5712    1.5917   -0.1251 H   0  0  0  0  0  0  0  0  0  0  0  0
   -1.2581    0.0084    1.6079 H   0  0  0  0  0  0  0  0  0  0  0  0
   -1.4513   -1.3043    0.3224 H   0  0  0  0  0  0  0  0  0  0  0  0
   -2.8028    1.3985    0.3604 H   0  0  0  0  0  0  0  0  0  0  0  0
   -3.6165   -0.2532    0.3898 H   0  0  0  0  0  0  0  0  0  0  0  0
   -3.3503    0.1470   -2.0648 H   0  0  0  0  0  0  0  0  0  0  0  0
    3.3571   -2.1633   -0.4403 H   0  0  0  0  0  0  0  0  0  0  0  0
  1  2  2  0
  2  3  1  0
  3  4  1  0
  4  5  1  0
  5  6  1  0
  6  7  1  0
  7  8  1  0
  8  9  1  0
  9 10  2  0
  4 11  1  0
 11 12  2  0
 11 13  1  0
 13  2  1  0
  9  5  1  0
  3 14  1  0
  3 15  1  0
  5 16  1  1
  6 17  1  0
  6 18  1  0
  7 19  1  0
  7 20  1  0
  8 21  1  0
 13 22  1  0
M  END
$$$$

     RDKit          3D

 22 23  0  0  0  0  0  0  0  0999 V2000
    3.3473    1.4067    1.6380 O   0  0  0  0  0  0  0  0  0  0  0  0
    2.6906    0.7401    0.7991 C   0  0  0  0  0  0  0  0  0  0  0  0
    1.3431    1.0183    0.2167 C   0  0  0  0  0  0  0  0  0  0  0  0
    0.8148   -0.2692   -0.1394 N   0  0  0  0  0  0  0  0  0  0  0  0
   -0.5464   -0.7304   -0.2540 C   0  0  2  0  0  0  0  0  0  0  0  0
   -1.3778    0.1008   -1.1829 C   0  0  0  0  0  0  0  0  0  0  0  0
   -2.5683    0.5885   -0.4178 C   0  0  0  0  0  0  0  0  0  0  0  0
   -2.5712   -0.2289    0.7940 N   0  0  0  0  0  0  0  0  0  0  0  0
   -1.2463   -0.6239    1.0583 C   0  0  0  0  0  0  0  0  0  0  0  0
   -0.7519   -0.8446    2.1997 O   0  0  0  0  0  0  0  0  0  0  0  0
    1.9472   -1.0941   -0.3836 C   0  0  0  0  0  0  0  0  0  0  0  0
    2.0049   -2.1982   -0.9966 O   0  0  0  0  0  0  0  0  0  0  0  0
    3.0999   -0.4844    0.1871 N   0  0  0  0  0  0  0  0  0  0  0  0
    0.7599    1.5674    0.9552 H   0  0  0  0  0  0  0  0  0  0  0  0
    1.4580    1.6069   -0.7178 H   0  0  0  0  0  0  0  0  0  0  0  0
   -0.5955   -1.7950   -0.5527 H   0  0  0  0  0  0  0  0  0  0  0  0
   -0.8408    0.9824   -1.5860 H   0  0  0  0  0  0  0  0  0  0  0  0
   -1.6608   -0.5161   -2.0736 H   0  0  0  0  0  0  0  0  0  0  0  0
   -2.4778    1.6438   -0.0772 H   0  0  0  0  0  0  0  0  0  0  0  0
   -3.4901    0.4447   -1.0114 H   0  0  0  0  0  0  0  0  0  0  0  0
   -3.4200   -0.4760    1.3658 H   0  0  0  0  0  0  0  0  0  0  0  0
    4.0811   -0.8387    0.1792 H   0  0  0  0  0  0  0  0  0  0  0  0
  1  2  2  0
  2  3  1  0
  3  4  1  0
  4  5  1  0
  5  6  1  0
  6  7  1  0
  7  8  1  0
  8  9  1  0
  9 10  2  0
  4 11  1  0
 11 12  2  0
 11 13  1  0
 13  2  1  0
  9  5  1  0
  3 14  1  0
  3 15  1  0
  5 16  1  6
  6 17  1  0
  6 18  1  0
  7 19  1  0
  7 20  1  0
  8 21  1  0
 13 22  1  0
M  END
$$$$

     RDKit          3D

 22 23  0  0  0  0  0  0  0  0999 V2000
    4.2438   -0.9931   -0.3700 O   0  0  0  0  0  0  0  0  0  0  0  0
    3.1157   -0.4553   -0.2055 C   0  0  0  0  0  0  0  0  0  0  0  0
    1.8951   -1.1473    0.2208 C   0  0  0  0  0  0  0  0  0  0  0  0
    0.8327   -0.1781    0.0296 N   0  0  0  0  0  0  0  0  0  0  0  0
   -0.5681   -0.4889    0.1231 C   0  0  2  0  0  0  0  0  0  0  0  0
   -1.3535   -0.0773   -1.0955 C   0  0  0  0  0  0  0  0  0  0  0  0
   -2.7713   -0.0513   -0.5148 C   0  0  0  0  0  0  0  0  0  0  0  0
   -2.5492    0.6815    0.7166 N   0  0  0  0  0  0  0  0  0  0  0  0
   -1.2525    0.3294    1.1863 C   0  0  0  0  0  0  0  0  0  0  0  0
   -0.7805    0.6586    2.3050 O   0  0  0  0  0  0  0  0  0  0  0  0
    1.4044    1.0846   -0.2557 C   0  0  0  0  0  0  0  0  0  0  0  0
    0.8003    2.1782   -0.3668 O   0  0  0  0  0  0  0  0  0  0  0  0
    2.8141    0.9316   -0.4039 N   0  0  0  0  0  0  0  0  0  0  0  0
    1.9411   -1.4862    1.2928 H   0  0  0  0  0  0  0  0  0  0  0  0
    1.6936   -2.0540   -0.4045 H   0  0  0  0  0  0  0  0  0  0  0  0
   -0.7471   -1.5405    0.3552 H   0  0  0  0  0  0  0  0  0  0  0  0
   -1.2589   -0.7571   -1.9404 H   0  0  0  0  0  0  0  0  0  0  0  0
   -1.1303    0.9621   -1.3903 H   0  0  0  0  0  0  0  0  0  0  0  0
   -3.1100   -1.0794   -0.2542 H   0  0  0  0  0  0  0  0  0  0  0  0
   -3.4664    0.4587   -1.2024 H   0  0  0  0  0  0  0  0  0  0  0  0
   -3.2459    1.3348    1.1380 H   0  0  0  0  0  0  0  0  0  0  0  0
    3.4928    1.6890   -0.6166 H   0  0  0  0  0  0  0  0  0  0  0  0
  1  2  2  0
  2  3  1  0
  3  4  1  0
  4  5  1  0
  5  6  1  0
  6  7  1  0
  7  8  1  0
  8  9  1  0
  9 10  2  0
  4 11  1  0
 11 12  2  0
 11 13  1  0
 13  2  1  0
  9  5  1  0
  3 14  1  0
  3 15  1  0
  5 16  1  1
  6 17  1  0
  6 18  1  0
  7 19  1  0
  7 20  1  0
  8 21  1  0
 13 22  1  0
M  END
$$$$

     RDKit          3D

 22 23  0  0  0  0  0  0  0  0999 V2000
    4.0634   -0.7150   -1.1282 O   0  0  0  0  0  0  0  0  0  0  0  0
    3.0854   -0.2840   -0.4973 C   0  0  0  0  0  0  0  0  0  0  0  0
    1.8317   -1.0552   -0.2976 C   0  0  0  0  0  0  0  0  0  0  0  0
    0.8290   -0.0858    0.1066 N   0  0  0  0  0  0  0  0  0  0  0  0
   -0.5688   -0.3625    0.0538 C   0  0  2  0  0  0  0  0  0  0  0  0
   -1.3127    0.6170   -0.8654 C   0  0  0  0  0  0  0  0  0  0  0  0
   -2.7474    0.2039   -0.5147 C   0  0  0  0  0  0  0  0  0  0  0  0
   -2.6428    0.1223    0.9459 N   0  0  0  0  0  0  0  0  0  0  0  0
   -1.2915   -0.1445    1.3120 C   0  0  0  0  0  0  0  0  0  0  0  0
   -0.8995   -0.1659    2.4994 O   0  0  0  0  0  0  0  0  0  0  0  0
    1.5329    1.0702    0.5180 C   0  0  0  0  0  0  0  0  0  0  0  0
    1.0111    2.0343    1.1099 O   0  0  0  0  0  0  0  0  0  0  0  0
    2.9010    0.9520    0.1528 N   0  0  0  0  0  0  0  0  0  0  0  0
    1.9475   -1.8298    0.4935 H   0  0  0  0  0  0  0  0  0  0  0  0
    1.4819   -1.5564   -1.2140 H   0  0  0  0  0  0  0  0  0  0  0  0
   -0.8086   -1.3643   -0.3164 H   0  0  0  0  0  0  0  0  0  0  0  0
   -1.1448    1.6537   -0.5115 H   0  0  0  0  0  0  0  0  0  0  0  0
   -1.0831    0.4485   -1.9144 H   0  0  0  0  0  0  0  0  0  0  0  0
   -3.4804    0.9400   -0.8360 H   0  0  0  0  0  0  0  0  0  0  0  0
   -2.8788   -0.8011   -0.9679 H   0  0  0  0  0  0  0  0  0  0  0  0
   -3.4867    0.2534    1.5492 H   0  0  0  0  0  0  0  0  0  0  0  0
    3.6612    1.6430    0.3225 H   0  0  0  0  0  0  0  0  0  0  0  0
  1  2  2  0
  2  3  1  0
  3  4  1  0
  4  5  1  0
  5  6  1  0
  6  7  1  0
  7  8  1  0
  8  9  1  0
  9 10  2  0
  4 11  1  0
 11 12  2  0
 11 13  1  0
 13  2  1  0
  9  5  1  0
  3 14  1  0
  3 15  1  0
  5 16  1  6
  6 17  1  0
  6 18  1  0
  7 19  1  0
  7 20  1  0
  8 21  1  0
 13 22  1  0
M  END
$$$$

     RDKit          3D

 22 23  0  0  0  0  0  0  0  0999 V2000
    4.1399   -0.8093    0.8016 O   0  0  0  0  0  0  0  0  0  0  0  0
    3.0393   -0.2811    0.4995 C   0  0  0  0  0  0  0  0  0  0  0  0
    2.0286   -0.7976   -0.4797 C   0  0  0  0  0  0  0  0  0  0  0  0
    0.8259   -0.1669   -0.0079 N   0  0  0  0  0  0  0  0  0  0  0  0
   -0.5102   -0.6524   -0.2412 C   0  0  2  0  0  0  0  0  0  0  0  0
   -1.3854    0.3572   -0.9174 C   0  0  0  0  0  0  0  0  0  0  0  0
   -2.5289    0.6682    0.0097 C   0  0  0  0  0  0  0  0  0  0  0  0
   -2.5525   -0.4306    0.9493 N   0  0  0  0  0  0  0  0  0  0  0  0
   -1.2382   -0.9527    1.0192 C   0  0  0  0  0  0  0  0  0  0  0  0
   -0.7995   -1.5769    2.0339 O   0  0  0  0  0  0  0  0  0  0  0  0
    1.1466    0.9981    0.7176 C   0  0  0  0  0  0  0  0  0  0  0  0
    0.3867    1.9681    1.0570 O   0  0  0  0  0  0  0  0  0  0  0  0
    2.5221    0.9448    1.0427 N   0  0  0  0  0  0  0  0  0  0  0  0
    2.3084   -0.4409   -1.4909 H   0  0  0  0  0  0  0  0  0  0  0  0
    1.9969   -1.8908   -0.4652 H   0  0  0  0  0  0  0  0  0  0  0  0
   -0.5164   -1.5901   -0.8396 H   0  0  0  0  0  0  0  0  0  0  0  0
   -1.7720   -0.0367   -1.8891 H   0  0  0  0  0  0  0  0  0  0  0  0
   -0.8612    1.3167   -1.1181 H   0  0  0  0  0  0  0  0  0  0  0  0
   -2.3593    1.6388    0.5422 H   0  0  0  0  0  0  0  0  0  0  0  0
   -3.4865    0.7835   -0.5404 H   0  0  0  0  0  0  0  0  0  0  0  0
   -3.4257   -0.7288    1.4507 H   0  0  0  0  0  0  0  0  0  0  0  0
    3.0413    1.6796    1.5820 H   0  0  0  0  0  0  0  0  0  0  0  0
  1  2  2  0
  2  3  1  0
  3  4  1  0
  4  5  1  0
  5  6  1  0
  6  7  1  0
  7  8  1  0
  8  9  1  0
  9 10  2  0
  4 11  1  0
 11 12  2  0
 11 13  1  0
 13  2  1  0
  9  5  1  0
  3 14  1  0
  3 15  1  0
  5 16  1  6
  6 17  1  0
  6 18  1  0
  7 19  1  0
  7 20  1  0
  8 21  1  0
 13 22  1  0
M  END
$$$$

     RDKit          3D

 22 23  0  0  0  0  0  0  0  0999 V2000
    4.1623    0.2457    1.1385 O   0  0  0  0  0  0  0  0  0  0  0  0
    3.1063    0.1511    0.4911 C   0  0  0  0  0  0  0  0  0  0  0  0
    1.8684    0.9314    0.7465 C   0  0  0  0  0  0  0  0  0  0  0  0
    0.8382    0.2126    0.0189 N   0  0  0  0  0  0  0  0  0  0  0  0
   -0.5588    0.3944    0.2160 C   0  0  2  0  0  0  0  0  0  0  0  0
   -1.2974   -0.8777    0.5680 C   0  0  0  0  0  0  0  0  0  0  0  0
   -2.7424   -0.4463    0.3391 C   0  0  0  0  0  0  0  0  0  0  0  0
   -2.6579    0.5476   -0.7351 N   0  0  0  0  0  0  0  0  0  0  0  0
   -1.2837    0.8014   -1.0272 C   0  0  0  0  0  0  0  0  0  0  0  0
   -0.8587    1.2585   -2.0958 O   0  0  0  0  0  0  0  0  0  0  0  0
    1.4786   -0.6568   -0.8757 C   0  0  0  0  0  0  0  0  0  0  0  0
    0.9471   -1.3178   -1.8013 O   0  0  0  0  0  0  0  0  0  0  0  0
    2.8865   -0.7188   -0.6115 N   0  0  0  0  0  0  0  0  0  0  0  0
    1.9513    1.9810    0.4096 H   0  0  0  0  0  0  0  0  0  0  0  0
    1.6559    0.8720    1.8380 H   0  0  0  0  0  0  0  0  0  0  0  0
   -0.8076    1.1393    0.9802 H   0  0  0  0  0  0  0  0  0  0  0  0
   -1.1113   -1.1418    1.6201 H   0  0  0  0  0  0  0  0  0  0  0  0
   -1.1080   -1.6981   -0.1420 H   0  0  0  0  0  0  0  0  0  0  0  0
   -3.2197   -0.0573    1.2385 H   0  0  0  0  0  0  0  0  0  0  0  0
   -3.3555   -1.2991   -0.0566 H   0  0  0  0  0  0  0  0  0  0  0  0
   -3.5183    0.9501   -1.1584 H   0  0  0  0  0  0  0  0  0  0  0  0
    3.6247   -1.2716   -1.1007 H   0  0  0  0  0  0  0  0  0  0  0  0
  1  2  2  0
  2  3  1  0
  3  4  1  0
  4  5  1  0
  5  6  1  0
  6  7  1  0
  7  8  1  0
  8  9  1  0
  9 10  2  0
  4 11  1  0
 11 12  2  0
 11 13  1  0
 13  2  1  0
  9  5  1  0
  3 14  1  0
  3 15  1  0
  5 16  1  1
  6 17  1  0
  6 18  1  0
  7 19  1  0
  7 20  1  0
  8 21  1  0
 13 22  1  0
M  END
$$$$

     RDKit          3D

 22 23  0  0  0  0  0  0  0  0999 V2000
   -3.8315    0.5527    1.2015 O   0  0  0  0  0  0  0  0  0  0  0  0
   -2.8871    0.3440    0.4114 C   0  0  0  0  0  0  0  0  0  0  0  0
   -2.1095   -0.8948    0.2400 C   0  0  0  0  0  0  0  0  0  0  0  0
   -0.7749   -0.3590   -0.0204 N   0  0  0  0  0  0  0  0  0  0  0  0
    0.5123   -0.8586    0.3658 C   0  0  2  0  0  0  0  0  0  0  0  0
    1.2790    0.0884    1.2552 C   0  0  0  0  0  0  0  0  0  0  0  0
    2.3864    0.6638    0.4297 C   0  0  0  0  0  0  0  0  0  0  0  0
    2.3840   -0.0809   -0.8119 N   0  0  0  0  0  0  0  0  0  0  0  0
    1.3867   -1.0825   -0.8111 C   0  0  0  0  0  0  0  0  0  0  0  0
    1.2154   -2.0253   -1.6336 O   0  0  0  0  0  0  0  0  0  0  0  0
   -1.0195    0.8360   -0.7838 C   0  0  0  0  0  0  0  0  0  0  0  0
   -0.1465    1.3466   -1.5474 O   0  0  0  0  0  0  0  0  0  0  0  0
   -2.3475    1.2807   -0.5143 N   0  0  0  0  0  0  0  0  0  0  0  0
   -2.1372   -1.5774    1.0827 H   0  0  0  0  0  0  0  0  0  0  0  0
   -2.4509   -1.3648   -0.7212 H   0  0  0  0  0  0  0  0  0  0  0  0
    0.3672   -1.8027    0.9497 H   0  0  0  0  0  0  0  0  0  0  0  0
    1.7339   -0.4395    2.1214 H   0  0  0  0  0  0  0  0  0  0  0  0
    0.5927    0.8914    1.6559 H   0  0  0  0  0  0  0  0  0  0  0  0
    2.2248    1.7506    0.2739 H   0  0  0  0  0  0  0  0  0  0  0  0
    3.3888    0.5114    0.9098 H   0  0  0  0  0  0  0  0  0  0  0  0
    3.0305    0.0941   -1.6058 H   0  0  0  0  0  0  0  0  0  0  0  0
   -2.7972    2.1256   -0.9301 H   0  0  0  0  0  0  0  0  0  0  0  0
  1  2  2  0
  2  3  1  0
  3  4  1  0
  4  5  1  0
  5  6  1  0
  6  7  1  0
  7  8  1  0
  8  9  1  0
  9 10  2  0
  4 11  1  0
 11 12  2  0
 11 13  1  0
 13  2  1  0
  9  5  1  0
  3 14  1  0
  3 15  1  0
  5 16  1  1
  6 17  1  0
  6 18  1  0
  7 19  1  0
  7 20  1  0
  8 21  1  0
 13 22  1  0
M  END
$$$$
