
     RDKit          3D

 27 28  0  0  0  0  0  0  0  0999 V2000
    3.1631    1.0011    0.3392 N   0  0  0  0  0  0  0  0  0  0  0  0
    2.1982    0.5804   -0.6048 C   0  0  0  0  0  0  0  0  0  0  0  0
    2.3436    0.9452   -1.7917 O   0  0  0  0  0  0  0  0  0  0  0  0
    1.0945   -0.2238   -0.2607 N   0  0  0  0  0  0  0  0  0  0  0  0
    0.8498   -0.6912    1.0903 C   0  0  0  0  0  0  0  0  0  0  0  0
   -0.5310   -1.3060    1.0118 C   0  0  1  0  0  0  0  0  0  0  0  0
   -1.5296   -0.1760    1.1036 C   0  0  0  0  0  0  0  0  0  0  0  0
   -1.1903    0.9368    0.1244 C   0  0  2  0  0  0  0  0  0  0  0  0
   -2.2085    1.8810    0.1657 O   0  0  0  0  0  0  0  0  0  0  0  0
   -1.0952    0.2769   -1.2446 C   0  0  1  0  0  0  0  0  0  0  0  0
   -0.9034    1.2236   -2.2450 O   0  0  0  0  0  0  0  0  0  0  0  0
    0.0632   -0.6979   -1.1622 C   0  0  2  0  0  0  0  0  0  0  0  0
   -0.4794   -1.9035   -0.3802 C   0  0  0  0  0  0  0  0  0  0  0  0
    3.3319    0.3437    1.1545 H   0  0  0  0  0  0  0  0  0  0  0  0
    3.6966    1.8869    0.2803 H   0  0  0  0  0  0  0  0  0  0  0  0
    1.5878   -1.4989    1.3130 H   0  0  0  0  0  0  0  0  0  0  0  0
    0.9157    0.1219    1.8409 H   0  0  0  0  0  0  0  0  0  0  0  0
   -0.7342   -2.0345    1.7947 H   0  0  0  0  0  0  0  0  0  0  0  0
   -2.5616   -0.5102    0.8775 H   0  0  0  0  0  0  0  0  0  0  0  0
   -1.4395    0.2521    2.1212 H   0  0  0  0  0  0  0  0  0  0  0  0
   -0.2115    1.3937    0.3283 H   0  0  0  0  0  0  0  0  0  0  0  0
   -1.8564    2.7248    0.5720 H   0  0  0  0  0  0  0  0  0  0  0  0
   -2.0513   -0.2850   -1.3825 H   0  0  0  0  0  0  0  0  0  0  0  0
   -1.7828    1.6465   -2.4084 H   0  0  0  0  0  0  0  0  0  0  0  0
    0.4485   -0.9966   -2.1428 H   0  0  0  0  0  0  0  0  0  0  0  0
    0.3231   -2.6516   -0.3786 H   0  0  0  0  0  0  0  0  0  0  0  0
   -1.4414   -2.2393   -0.7535 H   0  0  0  0  0  0  0  0  0  0  0  0
  1  2  1  0
  2  3  2  0
  2  4  1  0
  4  5  1  0
  5  6  1  0
  6  7  1  0
  7  8  1  0
  8  9  1  0
  8 10  1  0
 10 11  1  0
 10 12  1  0
 12 13  1  0
 12  4  1  0
 13  6  1  0
  1 14  1  0
  1 15  1  0
  5 16  1  0
  5 17  1  0
  6 18  1  1
  7 19  1  0
  7 20  1  0
  8 21  1  1
  9 22  1  0
 10 23  1  6
 11 24  1  0
 12 25  1  6
 13 26  1  0
 13 27  1  0
M  END
$$$$

     RDKit          3D

 27 28  0  0  0  0  0  0  0  0999 V2000
    3.0690   -0.4532    1.6091 N   0  0  0  0  0  0  0  0  0  0  0  0
    2.2161    0.5323    1.0768 C   0  0  0  0  0  0  0  0  0  0  0  0
    2.3855    1.7193    1.4039 O   0  0  0  0  0  0  0  0  0  0  0  0
    1.2006    0.1608    0.1955 N   0  0  0  0  0  0  0  0  0  0  0  0
    0.9205   -1.1838   -0.2466 C   0  0  0  0  0  0  0  0  0  0  0  0
   -0.1154   -1.0365   -1.3611 C   0  0  1  0  0  0  0  0  0  0  0  0
   -1.4672   -1.1699   -0.7181 C   0  0  0  0  0  0  0  0  0  0  0  0
   -1.5858   -0.3462    0.5152 C   0  0  2  0  0  0  0  0  0  0  0  0
   -2.9670   -0.2114    0.7943 O   0  0  0  0  0  0  0  0  0  0  0  0
   -1.0960    1.0619    0.2171 C   0  0  1  0  0  0  0  0  0  0  0  0
   -1.1862    1.8864    1.3258 O   0  0  0  0  0  0  0  0  0  0  0  0
    0.2687    1.0640   -0.4139 C   0  0  2  0  0  0  0  0  0  0  0  0
    0.0935    0.4184   -1.7945 C   0  0  0  0  0  0  0  0  0  0  0  0
    2.6180   -1.3757    1.8815 H   0  0  0  0  0  0  0  0  0  0  0  0
    4.0958   -0.3321    1.7483 H   0  0  0  0  0  0  0  0  0  0  0  0
    1.7943   -1.6789   -0.7185 H   0  0  0  0  0  0  0  0  0  0  0  0
    0.5722   -1.8516    0.5528 H   0  0  0  0  0  0  0  0  0  0  0  0
    0.0536   -1.7441   -2.1698 H   0  0  0  0  0  0  0  0  0  0  0  0
   -2.2116   -0.7764   -1.4634 H   0  0  0  0  0  0  0  0  0  0  0  0
   -1.6676   -2.2371   -0.5736 H   0  0  0  0  0  0  0  0  0  0  0  0
   -1.1393   -0.7762    1.4162 H   0  0  0  0  0  0  0  0  0  0  0  0
   -3.1077    0.6773    1.2328 H   0  0  0  0  0  0  0  0  0  0  0  0
   -1.8000    1.4642   -0.5435 H   0  0  0  0  0  0  0  0  0  0  0  0
   -1.7206    2.7037    1.1624 H   0  0  0  0  0  0  0  0  0  0  0  0
    0.6116    2.0957   -0.4874 H   0  0  0  0  0  0  0  0  0  0  0  0
    0.9894    0.5449   -2.3976 H   0  0  0  0  0  0  0  0  0  0  0  0
   -0.8242    0.8440   -2.2436 H   0  0  0  0  0  0  0  0  0  0  0  0
  1  2  1  0
  2  3  2  0
  2  4  1  0
  4  5  1  0
  5  6  1  0
  6  7  1  0
  7  8  1  0
  8  9  1  0
  8 10  1  0
 10 11  1  0
 10 12  1  0
 12 13  1  0
 12  4  1  0
 13  6  1  0
  1 14  1  0
  1 15  1  0
  5 16  1  0
  5 17  1  0
  6 18  1  6
  7 19  1  0
  7 20  1  0
  8 21  1  1
  9 22  1  0
 10 23  1  6
 11 24  1  0
 12 25  1  6
 13 26  1  0
 13 27  1  0
M  END
$$$$

     RDKit          3D

 27 28  0  0  0  0  0  0  0  0999 V2000
    3.0163   -0.5673    1.6590 N   0  0  0  0  0  0  0  0  0  0  0  0
    2.1458    0.4477    1.2304 C   0  0  0  0  0  0  0  0  0  0  0  0
    2.2644    1.5739    1.7824 O   0  0  0  0  0  0  0  0  0  0  0  0
    1.2026    0.1681    0.2277 N   0  0  0  0  0  0  0  0  0  0  0  0
    1.0642   -1.1190   -0.4058 C   0  0  0  0  0  0  0  0  0  0  0  0
   -0.2004   -0.9568   -1.2652 C   0  0  1  0  0  0  0  0  0  0  0  0
   -1.3616   -1.1546   -0.3180 C   0  0  0  0  0  0  0  0  0  0  0  0
   -2.0372    0.1411    0.0482 C   0  0  2  0  0  0  0  0  0  0  0  0
   -2.8633    0.5719   -0.9747 O   0  0  0  0  0  0  0  0  0  0  0  0
   -1.0317    1.1643    0.4851 C   0  0  1  0  0  0  0  0  0  0  0  0
   -0.8156    1.0374    1.8560 O   0  0  0  0  0  0  0  0  0  0  0  0
    0.2525    1.1198   -0.3011 C   0  0  2  0  0  0  0  0  0  0  0  0
   -0.0339    0.4881   -1.6697 C   0  0  0  0  0  0  0  0  0  0  0  0
    2.6412   -1.4676    1.9888 H   0  0  0  0  0  0  0  0  0  0  0  0
    4.0339   -0.4103    1.6432 H   0  0  0  0  0  0  0  0  0  0  0  0
    1.8812   -1.3311   -1.1377 H   0  0  0  0  0  0  0  0  0  0  0  0
    0.9247   -1.9404    0.3228 H   0  0  0  0  0  0  0  0  0  0  0  0
   -0.2056   -1.6342   -2.1207 H   0  0  0  0  0  0  0  0  0  0  0  0
   -1.0559   -1.6370    0.6389 H   0  0  0  0  0  0  0  0  0  0  0  0
   -2.1307   -1.8487   -0.7569 H   0  0  0  0  0  0  0  0  0  0  0  0
   -2.7157   -0.0933    0.9164 H   0  0  0  0  0  0  0  0  0  0  0  0
   -2.9971   -0.1158   -1.6864 H   0  0  0  0  0  0  0  0  0  0  0  0
   -1.4820    2.1668    0.3229 H   0  0  0  0  0  0  0  0  0  0  0  0
   -1.1926    1.7975    2.3677 H   0  0  0  0  0  0  0  0  0  0  0  0
    0.6524    2.1179   -0.4581 H   0  0  0  0  0  0  0  0  0  0  0  0
    0.9292    0.5579   -2.2268 H   0  0  0  0  0  0  0  0  0  0  0  0
   -0.8852    0.9237   -2.1684 H   0  0  0  0  0  0  0  0  0  0  0  0
  1  2  1  0
  2  3  2  0
  2  4  1  0
  4  5  1  0
  5  6  1  0
  6  7  1  0
  7  8  1  0
  8  9  1  0
  8 10  1  0
 10 11  1  0
 10 12  1  0
 12 13  1  0
 12  4  1  0
 13  6  1  0
  1 14  1  0
  1 15  1  0
  5 16  1  0
  5 17  1  0
  6 18  1  6
  7 19  1  0
  7 20  1  0
  8 21  1  1
  9 22  1  0
 10 23  1  1
 11 24  1  0
 12 25  1  6
 13 26  1  0
 13 27  1  0
M  END
$$$$

     RDKit          3D

 27 28  0  0  0  0  0  0  0  0999 V2000
    3.3966    0.7013    0.5883 N   0  0  0  0  0  0  0  0  0  0  0  0
    2.2454    1.1889   -0.0783 C   0  0  0  0  0  0  0  0  0  0  0  0
    2.2319    2.4012   -0.4392 O   0  0  0  0  0  0  0  0  0  0  0  0
    1.1445    0.3351   -0.3292 N   0  0  0  0  0  0  0  0  0  0  0  0
    1.0640   -1.0626    0.0432 C   0  0  0  0  0  0  0  0  0  0  0  0
   -0.2241   -1.5802   -0.5495 C   0  0  1  0  0  0  0  0  0  0  0  0
   -1.3941   -1.4119    0.3940 C   0  0  0  0  0  0  0  0  0  0  0  0
   -1.4165   -0.0426    0.9830 C   0  0  2  0  0  0  0  0  0  0  0  0
   -2.7156    0.1742    1.4878 O   0  0  0  0  0  0  0  0  0  0  0  0
   -1.1143    1.0579    0.0263 C   0  0  1  0  0  0  0  0  0  0  0  0
   -0.6368    2.1728    0.7532 O   0  0  0  0  0  0  0  0  0  0  0  0
   -0.0654    0.7175   -0.9918 C   0  0  2  0  0  0  0  0  0  0  0  0
   -0.4564   -0.5854   -1.6916 C   0  0  0  0  0  0  0  0  0  0  0  0
    4.3578    0.8922    0.2635 H   0  0  0  0  0  0  0  0  0  0  0  0
    3.2462    0.1218    1.4489 H   0  0  0  0  0  0  0  0  0  0  0  0
    1.8935   -1.6534   -0.4125 H   0  0  0  0  0  0  0  0  0  0  0  0
    1.1225   -1.2083    1.1379 H   0  0  0  0  0  0  0  0  0  0  0  0
   -0.1123   -2.6048   -0.9040 H   0  0  0  0  0  0  0  0  0  0  0  0
   -2.3165   -1.5269   -0.2347 H   0  0  0  0  0  0  0  0  0  0  0  0
   -1.4178   -2.1579    1.1942 H   0  0  0  0  0  0  0  0  0  0  0  0
   -0.7461    0.0151    1.8606 H   0  0  0  0  0  0  0  0  0  0  0  0
   -3.4047   -0.2499    0.9084 H   0  0  0  0  0  0  0  0  0  0  0  0
   -2.0494    1.3847   -0.4571 H   0  0  0  0  0  0  0  0  0  0  0  0
   -1.3660    2.7346    1.0887 H   0  0  0  0  0  0  0  0  0  0  0  0
    0.0232    1.5488   -1.6878 H   0  0  0  0  0  0  0  0  0  0  0  0
    0.2171   -0.7960   -2.5381 H   0  0  0  0  0  0  0  0  0  0  0  0
   -1.5068   -0.5660   -1.9932 H   0  0  0  0  0  0  0  0  0  0  0  0
  1  2  1  0
  2  3  2  0
  2  4  1  0
  4  5  1  0
  5  6  1  0
  6  7  1  0
  7  8  1  0
  8  9  1  0
  8 10  1  0
 10 11  1  0
 10 12  1  0
 12 13  1  0
 12  4  1  0
 13  6  1  0
  1 14  1  0
  1 15  1  0
  5 16  1  0
  5 17  1  0
  6 18  1  6
  7 19  1  0
  7 20  1  0
  8 21  1  1
  9 22  1  0
 10 23  1  6
 11 24  1  0
 12 25  1  6
 13 26  1  0
 13 27  1  0
M  END
$$$$

     RDKit          3D

 27 28  0  0  0  0  0  0  0  0999 V2000
   -3.3318   -0.2751    0.7690 N   0  0  0  0  0  0  0  0  0  0  0  0
   -2.2686   -0.8320    0.0343 C   0  0  0  0  0  0  0  0  0  0  0  0
   -2.3301   -2.0604   -0.2417 O   0  0  0  0  0  0  0  0  0  0  0  0
   -1.1539   -0.0417   -0.3886 N   0  0  0  0  0  0  0  0  0  0  0  0
   -0.9818    1.3606   -0.1304 C   0  0  0  0  0  0  0  0  0  0  0  0
    0.4834    1.5830   -0.3947 C   0  0  1  0  0  0  0  0  0  0  0  0
    1.3784    1.0916    0.6790 C   0  0  0  0  0  0  0  0  0  0  0  0
    1.5718   -0.3597    0.7857 C   0  0  2  0  0  0  0  0  0  0  0  0
    2.9459   -0.6918    0.8705 O   0  0  0  0  0  0  0  0  0  0  0  0
    0.9731   -1.2145   -0.2652 C   0  0  1  0  0  0  0  0  0  0  0  0
    0.3366   -2.3494    0.2905 O   0  0  0  0  0  0  0  0  0  0  0  0
   -0.0224   -0.5443   -1.1477 C   0  0  2  0  0  0  0  0  0  0  0  0
    0.6577    0.7341   -1.6629 C   0  0  0  0  0  0  0  0  0  0  0  0
   -4.1198    0.2446    0.2966 H   0  0  0  0  0  0  0  0  0  0  0  0
   -3.3912   -0.3488    1.8081 H   0  0  0  0  0  0  0  0  0  0  0  0
   -1.3037    1.6857    0.8640 H   0  0  0  0  0  0  0  0  0  0  0  0
   -1.5332    1.9105   -0.9423 H   0  0  0  0  0  0  0  0  0  0  0  0
    0.6651    2.6499   -0.6079 H   0  0  0  0  0  0  0  0  0  0  0  0
    1.0257    1.5465    1.6514 H   0  0  0  0  0  0  0  0  0  0  0  0
    2.3868    1.5787    0.5174 H   0  0  0  0  0  0  0  0  0  0  0  0
    1.1525   -0.7009    1.7786 H   0  0  0  0  0  0  0  0  0  0  0  0
    3.0904   -1.4845    1.4390 H   0  0  0  0  0  0  0  0  0  0  0  0
    1.7667   -1.6530   -0.9401 H   0  0  0  0  0  0  0  0  0  0  0  0
    0.4964   -2.3157    1.2686 H   0  0  0  0  0  0  0  0  0  0  0  0
   -0.3085   -1.2095   -1.9655 H   0  0  0  0  0  0  0  0  0  0  0  0
    1.7237    0.5594   -1.8580 H   0  0  0  0  0  0  0  0  0  0  0  0
    0.0907    1.1365   -2.5078 H   0  0  0  0  0  0  0  0  0  0  0  0
  1  2  1  0
  2  3  2  0
  2  4  1  0
  4  5  1  0
  5  6  1  0
  6  7  1  0
  7  8  1  0
  8  9  1  0
  8 10  1  0
 10 11  1  0
 10 12  1  0
 12 13  1  0
 12  4  1  0
 13  6  1  0
  1 14  1  0
  1 15  1  0
  5 16  1  0
  5 17  1  0
  6 18  1  6
  7 19  1  0
  7 20  1  0
  8 21  1  1
  9 22  1  0
 10 23  1  6
 11 24  1  0
 12 25  1  6
 13 26  1  0
 13 27  1  0
M  END
$$$$

     RDKit          3D

 27 28  0  0  0  0  0  0  0  0999 V2000
    2.9048   -0.1938    1.1619 N   0  0  0  0  0  0  0  0  0  0  0  0
    2.2352   -0.7821    0.0576 C   0  0  0  0  0  0  0  0  0  0  0  0
    2.6913   -1.8428   -0.4392 O   0  0  0  0  0  0  0  0  0  0  0  0
    1.0704   -0.1520   -0.4501 N   0  0  0  0  0  0  0  0  0  0  0  0
    0.3057   -0.6624   -1.5734 C   0  0  0  0  0  0  0  0  0  0  0  0
   -0.9180    0.2274   -1.6257 C   0  0  1  0  0  0  0  0  0  0  0  0
   -1.9230   -0.2976   -0.6314 C   0  0  0  0  0  0  0  0  0  0  0  0
   -1.1954   -0.5800    0.6821 C   0  0  2  0  0  0  0  0  0  0  0  0
   -2.0626   -1.1099    1.6289 O   0  0  0  0  0  0  0  0  0  0  0  0
   -0.5749    0.7139    1.1210 C   0  0  1  0  0  0  0  0  0  0  0  0
    0.0413    0.6558    2.3445 O   0  0  0  0  0  0  0  0  0  0  0  0
    0.4695    1.0674    0.0524 C   0  0  2  0  0  0  0  0  0  0  0  0
   -0.3126    1.5504   -1.1464 C   0  0  0  0  0  0  0  0  0  0  0  0
    2.5659   -0.4347    2.1149 H   0  0  0  0  0  0  0  0  0  0  0  0
    3.6909    0.4418    0.9889 H   0  0  0  0  0  0  0  0  0  0  0  0
    0.9274   -0.5054   -2.4898 H   0  0  0  0  0  0  0  0  0  0  0  0
    0.0540   -1.7199   -1.4814 H   0  0  0  0  0  0  0  0  0  0  0  0
   -1.3274    0.3039   -2.6346 H   0  0  0  0  0  0  0  0  0  0  0  0
   -2.3327   -1.2298   -1.0197 H   0  0  0  0  0  0  0  0  0  0  0  0
   -2.7218    0.4555   -0.4472 H   0  0  0  0  0  0  0  0  0  0  0  0
   -0.3787   -1.3008    0.4786 H   0  0  0  0  0  0  0  0  0  0  0  0
   -1.9752   -2.0963    1.6285 H   0  0  0  0  0  0  0  0  0  0  0  0
   -1.3864    1.4950    1.0936 H   0  0  0  0  0  0  0  0  0  0  0  0
   -0.3835    0.0424    2.9911 H   0  0  0  0  0  0  0  0  0  0  0  0
    1.1920    1.7948    0.4235 H   0  0  0  0  0  0  0  0  0  0  0  0
   -1.0690    2.2974   -0.9163 H   0  0  0  0  0  0  0  0  0  0  0  0
    0.4125    1.8621   -1.9121 H   0  0  0  0  0  0  0  0  0  0  0  0
  1  2  1  0
  2  3  2  0
  2  4  1  0
  4  5  1  0
  5  6  1  0
  6  7  1  0
  7  8  1  0
  8  9  1  0
  8 10  1  0
 10 11  1  0
 10 12  1  0
 12 13  1  0
 12  4  1  0
 13  6  1  0
  1 14  1  0
  1 15  1  0
  5 16  1  0
  5 17  1  0
  6 18  1  6
  7 19  1  0
  7 20  1  0
  8 21  1  6
  9 22  1  0
 10 23  1  1
 11 24  1  0
 12 25  1  1
 13 26  1  0
 13 27  1  0
M  END
$$$$

     RDKit          3D

 27 28  0  0  0  0  0  0  0  0999 V2000
    2.7611    1.3266    1.1933 N   0  0  0  0  0  0  0  0  0  0  0  0
    1.8623    1.3269    0.1142 C   0  0  0  0  0  0  0  0  0  0  0  0
    1.6896    2.3613   -0.5738 O   0  0  0  0  0  0  0  0  0  0  0  0
    1.1398    0.1655   -0.2139 N   0  0  0  0  0  0  0  0  0  0  0  0
    1.2474   -1.1002    0.5034 C   0  0  0  0  0  0  0  0  0  0  0  0
   -0.1524   -1.6411    0.2911 C   0  0  1  0  0  0  0  0  0  0  0  0
   -1.1692   -0.8207    1.0014 C   0  0  0  0  0  0  0  0  0  0  0  0
   -1.4783    0.5018    0.4471 C   0  0  2  0  0  0  0  0  0  0  0  0
   -2.8731    0.7154    0.5558 O   0  0  0  0  0  0  0  0  0  0  0  0
   -1.1089    0.7530   -0.9671 C   0  0  1  0  0  0  0  0  0  0  0  0
   -0.9540    2.0939   -1.2678 O   0  0  0  0  0  0  0  0  0  0  0  0
    0.1637    0.0050   -1.3111 C   0  0  2  0  0  0  0  0  0  0  0  0
   -0.2082   -1.4639   -1.2271 C   0  0  0  0  0  0  0  0  0  0  0  0
    2.4438    0.9051    2.1141 H   0  0  0  0  0  0  0  0  0  0  0  0
    3.7232    1.7024    1.1873 H   0  0  0  0  0  0  0  0  0  0  0  0
    1.9255   -1.7446   -0.0895 H   0  0  0  0  0  0  0  0  0  0  0  0
    1.5256   -0.9869    1.5422 H   0  0  0  0  0  0  0  0  0  0  0  0
   -0.2534   -2.7019    0.5429 H   0  0  0  0  0  0  0  0  0  0  0  0
   -2.0961   -1.4538    1.1156 H   0  0  0  0  0  0  0  0  0  0  0  0
   -0.8038   -0.6921    2.0613 H   0  0  0  0  0  0  0  0  0  0  0  0
   -1.0285    1.3320    1.0682 H   0  0  0  0  0  0  0  0  0  0  0  0
   -3.2515    0.2357    1.3203 H   0  0  0  0  0  0  0  0  0  0  0  0
   -1.9077    0.3565   -1.6426 H   0  0  0  0  0  0  0  0  0  0  0  0
   -1.2291    2.2791   -2.2153 H   0  0  0  0  0  0  0  0  0  0  0  0
    0.5892    0.2766   -2.2733 H   0  0  0  0  0  0  0  0  0  0  0  0
    0.6301   -2.0438   -1.6344 H   0  0  0  0  0  0  0  0  0  0  0  0
   -1.1869   -1.6878   -1.6422 H   0  0  0  0  0  0  0  0  0  0  0  0
  1  2  1  0
  2  3  2  0
  2  4  1  0
  4  5  1  0
  5  6  1  0
  6  7  1  0
  7  8  1  0
  8  9  1  0
  8 10  1  0
 10 11  1  0
 10 12  1  0
 12 13  1  0
 12  4  1  0
 13  6  1  0
  1 14  1  0
  1 15  1  0
  5 16  1  0
  5 17  1  0
  6 18  1  6
  7 19  1  0
  7 20  1  0
  8 21  1  1
  9 22  1  0
 10 23  1  6
 11 24  1  0
 12 25  1  6
 13 26  1  0
 13 27  1  0
M  END
$$$$

     RDKit          3D

 27 28  0  0  0  0  0  0  0  0999 V2000
   -3.4886    0.4750   -0.7793 N   0  0  0  0  0  0  0  0  0  0  0  0
   -2.4896    0.6921    0.1904 C   0  0  0  0  0  0  0  0  0  0  0  0
   -2.7184    1.5534    1.0778 O   0  0  0  0  0  0  0  0  0  0  0  0
   -1.2575    0.0066    0.2257 N   0  0  0  0  0  0  0  0  0  0  0  0
   -0.8500   -1.0071   -0.7213 C   0  0  0  0  0  0  0  0  0  0  0  0
    0.4609   -1.5577   -0.2061 C   0  0  1  0  0  0  0  0  0  0  0  0
    1.5791   -0.7852   -0.8041 C   0  0  0  0  0  0  0  0  0  0  0  0
    1.6784    0.6337   -0.4211 C   0  0  2  0  0  0  0  0  0  0  0  0
    3.0467    0.9398   -0.2209 O   0  0  0  0  0  0  0  0  0  0  0  0
    0.8886    1.0896    0.7384 C   0  0  1  0  0  0  0  0  0  0  0  0
    0.3060    2.3555    0.4947 O   0  0  0  0  0  0  0  0  0  0  0  0
   -0.2170    0.1823    1.1746 C   0  0  2  0  0  0  0  0  0  0  0  0
    0.3774   -1.2251    1.2733 C   0  0  0  0  0  0  0  0  0  0  0  0
   -3.9163    1.2765   -1.2690 H   0  0  0  0  0  0  0  0  0  0  0  0
   -3.8021   -0.4874   -1.0094 H   0  0  0  0  0  0  0  0  0  0  0  0
   -0.7379   -0.5707   -1.7528 H   0  0  0  0  0  0  0  0  0  0  0  0
   -1.5521   -1.8395   -0.8011 H   0  0  0  0  0  0  0  0  0  0  0  0
    0.5902   -2.6261   -0.3858 H   0  0  0  0  0  0  0  0  0  0  0  0
    1.4938   -0.8925   -1.9266 H   0  0  0  0  0  0  0  0  0  0  0  0
    2.5332   -1.3422   -0.5651 H   0  0  0  0  0  0  0  0  0  0  0  0
    1.3888    1.2727   -1.3077 H   0  0  0  0  0  0  0  0  0  0  0  0
    3.6202    0.1705   -0.4292 H   0  0  0  0  0  0  0  0  0  0  0  0
    1.5584    1.2351    1.6123 H   0  0  0  0  0  0  0  0  0  0  0  0
    0.9717    2.9925    0.1360 H   0  0  0  0  0  0  0  0  0  0  0  0
   -0.5539    0.5023    2.1803 H   0  0  0  0  0  0  0  0  0  0  0  0
    1.3885   -1.1491    1.6731 H   0  0  0  0  0  0  0  0  0  0  0  0
   -0.2986   -1.8950    1.8227 H   0  0  0  0  0  0  0  0  0  0  0  0
  1  2  1  0
  2  3  2  0
  2  4  1  0
  4  5  1  0
  5  6  1  0
  6  7  1  0
  7  8  1  0
  8  9  1  0
  8 10  1  0
 10 11  1  0
 10 12  1  0
 12 13  1  0
 12  4  1  0
 13  6  1  0
  1 14  1  0
  1 15  1  0
  5 16  1  0
  5 17  1  0
  6 18  1  1
  7 19  1  0
  7 20  1  0
  8 21  1  6
  9 22  1  0
 10 23  1  1
 11 24  1  0
 12 25  1  1
 13 26  1  0
 13 27  1  0
M  END
$$$$
