
     RDKit          3D

 30 29  0  0  0  0  0  0  0  0999 V2000
    4.8484   -0.1349   -0.4794 C   0  0  0  0  0  0  0  0  0  0  0  0
    4.4450    0.2822    0.7587 O   0  0  0  0  0  0  0  0  0  0  0  0
    3.1907   -0.0810    1.1727 C   0  0  0  0  0  0  0  0  0  0  0  0
    2.1522    0.5226    0.3242 C   0  0  0  0  0  0  0  0  0  0  0  0
    2.4430    1.3205   -0.5893 O   0  0  0  0  0  0  0  0  0  0  0  0
    0.7615    0.1931    0.5426 N   0  0  0  0  0  0  0  0  0  0  0  0
   -0.2089    0.8037   -0.3058 C   0  0  0  0  0  0  0  0  0  0  0  0
   -1.6170    0.4105   -0.0138 C   0  0  2  0  0  0  0  0  0  0  0  0
   -2.5134    1.2041   -0.9741 C   0  0  0  0  0  0  0  0  0  0  0  0
   -1.9404    0.7664    1.2895 O   0  0  0  0  0  0  0  0  0  0  0  0
   -1.8630   -1.0712   -0.1899 C   0  0  0  0  0  0  0  0  0  0  0  0
   -3.3298   -1.3772    0.1310 C   0  0  0  0  0  0  0  0  0  0  0  0
   -4.1913   -0.6858   -0.7028 O   0  0  0  0  0  0  0  0  0  0  0  0
    4.8374   -1.2579   -0.5491 H   0  0  0  0  0  0  0  0  0  0  0  0
    5.9069    0.2046   -0.6197 H   0  0  0  0  0  0  0  0  0  0  0  0
    4.2611    0.2734   -1.2965 H   0  0  0  0  0  0  0  0  0  0  0  0
    3.0487    0.2894    2.2200 H   0  0  0  0  0  0  0  0  0  0  0  0
    3.0445   -1.1910    1.1752 H   0  0  0  0  0  0  0  0  0  0  0  0
    0.5644   -0.4727    1.3106 H   0  0  0  0  0  0  0  0  0  0  0  0
   -0.1366    1.9075   -0.1801 H   0  0  0  0  0  0  0  0  0  0  0  0
    0.0157    0.6149   -1.3814 H   0  0  0  0  0  0  0  0  0  0  0  0
   -1.9691    2.1341   -1.3116 H   0  0  0  0  0  0  0  0  0  0  0  0
   -3.4253    1.5387   -0.4779 H   0  0  0  0  0  0  0  0  0  0  0  0
   -2.6894    0.6319   -1.9154 H   0  0  0  0  0  0  0  0  0  0  0  0
   -1.1273    1.0404    1.7915 H   0  0  0  0  0  0  0  0  0  0  0  0
   -1.6323   -1.4020   -1.2047 H   0  0  0  0  0  0  0  0  0  0  0  0
   -1.2519   -1.6063    0.5539 H   0  0  0  0  0  0  0  0  0  0  0  0
   -3.5421   -2.4576    0.0072 H   0  0  0  0  0  0  0  0  0  0  0  0
   -3.5621   -1.1253    1.1750 H   0  0  0  0  0  0  0  0  0  0  0  0
   -4.5197   -1.2751   -1.4232 H   0  0  0  0  0  0  0  0  0  0  0  0
  1  2  1  0
  2  3  1  0
  3  4  1  0
  4  5  2  0
  4  6  1  0
  6  7  1  0
  7  8  1  0
  8  9  1  0
  8 10  1  1
  8 11  1  0
 11 12  1  0
 12 13  1  0
  1 14  1  0
  1 15  1  0
  1 16  1  0
  3 17  1  0
  3 18  1  0
  6 19  1  0
  7 20  1  0
  7 21  1  0
  9 22  1  0
  9 23  1  0
  9 24  1  0
 10 25  1  0
 11 26  1  0
 11 27  1  0
 12 28  1  0
 12 29  1  0
 13 30  1  0
M  END
$$$$

     RDKit          3D

 30 29  0  0  0  0  0  0  0  0999 V2000
    3.4492    1.2377   -0.1066 C   0  0  0  0  0  0  0  0  0  0  0  0
    3.7905    0.1237    0.6045 O   0  0  0  0  0  0  0  0  0  0  0  0
    3.2745   -1.0569    0.1842 C   0  0  0  0  0  0  0  0  0  0  0  0
    1.8243   -1.2550    0.2838 C   0  0  0  0  0  0  0  0  0  0  0  0
    1.3787   -2.2902   -0.3022 O   0  0  0  0  0  0  0  0  0  0  0  0
    0.8715   -0.4593    0.9394 N   0  0  0  0  0  0  0  0  0  0  0  0
   -0.5371   -0.6790    1.0043 C   0  0  0  0  0  0  0  0  0  0  0  0
   -1.3007   -0.6906   -0.2624 C   0  0  2  0  0  0  0  0  0  0  0  0
   -2.7549   -1.0233    0.1251 C   0  0  0  0  0  0  0  0  0  0  0  0
   -0.9503   -1.6462   -1.1919 O   0  0  0  0  0  0  0  0  0  0  0  0
   -1.3824    0.6609   -0.9372 C   0  0  0  0  0  0  0  0  0  0  0  0
   -2.0542    1.6999   -0.0644 C   0  0  0  0  0  0  0  0  0  0  0  0
   -2.0841    2.9164   -0.7772 O   0  0  0  0  0  0  0  0  0  0  0  0
    3.9473    2.1107    0.3944 H   0  0  0  0  0  0  0  0  0  0  0  0
    3.8996    1.2430   -1.1363 H   0  0  0  0  0  0  0  0  0  0  0  0
    2.3888    1.4533   -0.2076 H   0  0  0  0  0  0  0  0  0  0  0  0
    3.7274   -1.8606    0.8478 H   0  0  0  0  0  0  0  0  0  0  0  0
    3.5959   -1.3495   -0.8452 H   0  0  0  0  0  0  0  0  0  0  0  0
    1.2677    0.3888    1.4573 H   0  0  0  0  0  0  0  0  0  0  0  0
   -0.7983   -1.6421    1.5340 H   0  0  0  0  0  0  0  0  0  0  0  0
   -1.0165    0.0931    1.6613 H   0  0  0  0  0  0  0  0  0  0  0  0
   -3.4213   -0.9399   -0.7356 H   0  0  0  0  0  0  0  0  0  0  0  0
   -3.0598   -0.4604    1.0130 H   0  0  0  0  0  0  0  0  0  0  0  0
   -2.7230   -2.1055    0.4336 H   0  0  0  0  0  0  0  0  0  0  0  0
   -1.3220   -2.5097   -0.8962 H   0  0  0  0  0  0  0  0  0  0  0  0
   -0.4113    1.0254   -1.3004 H   0  0  0  0  0  0  0  0  0  0  0  0
   -2.0596    0.5178   -1.8279 H   0  0  0  0  0  0  0  0  0  0  0  0
   -1.4433    1.9019    0.8399 H   0  0  0  0  0  0  0  0  0  0  0  0
   -3.0775    1.4037    0.1856 H   0  0  0  0  0  0  0  0  0  0  0  0
   -3.0191    3.1920   -0.9170 H   0  0  0  0  0  0  0  0  0  0  0  0
  1  2  1  0
  2  3  1  0
  3  4  1  0
  4  5  2  0
  4  6  1  0
  6  7  1  0
  7  8  1  0
  8  9  1  0
  8 10  1  6
  8 11  1  0
 11 12  1  0
 12 13  1  0
  1 14  1  0
  1 15  1  0
  1 16  1  0
  3 17  1  0
  3 18  1  0
  6 19  1  0
  7 20  1  0
  7 21  1  0
  9 22  1  0
  9 23  1  0
  9 24  1  0
 10 25  1  0
 11 26  1  0
 11 27  1  0
 12 28  1  0
 12 29  1  0
 13 30  1  0
M  END
$$$$

     RDKit          3D

 30 29  0  0  0  0  0  0  0  0999 V2000
    4.0380    1.7536    0.0916 C   0  0  0  0  0  0  0  0  0  0  0  0
    2.8472    1.1692   -0.3207 O   0  0  0  0  0  0  0  0  0  0  0  0
    2.7080   -0.0194    0.3894 C   0  0  0  0  0  0  0  0  0  0  0  0
    1.4375   -0.7260    0.0058 C   0  0  0  0  0  0  0  0  0  0  0  0
    1.2071   -1.7932    0.5718 O   0  0  0  0  0  0  0  0  0  0  0  0
    0.5362   -0.2184   -0.9491 N   0  0  0  0  0  0  0  0  0  0  0  0
   -0.6855   -0.7526   -1.4027 C   0  0  0  0  0  0  0  0  0  0  0  0
   -1.8170   -0.9325   -0.4634 C   0  0  2  0  0  0  0  0  0  0  0  0
   -1.6607   -1.9362    0.6271 C   0  0  0  0  0  0  0  0  0  0  0  0
   -2.8843   -1.4613   -1.2770 O   0  0  0  0  0  0  0  0  0  0  0  0
   -2.3952    0.3430    0.0893 C   0  0  0  0  0  0  0  0  0  0  0  0
   -1.4449    1.1868    0.8640 C   0  0  0  0  0  0  0  0  0  0  0  0
   -2.1672    2.3251    1.3009 O   0  0  0  0  0  0  0  0  0  0  0  0
    3.9405    1.9318    1.1934 H   0  0  0  0  0  0  0  0  0  0  0  0
    4.2356    2.7283   -0.3841 H   0  0  0  0  0  0  0  0  0  0  0  0
    4.9003    1.0529   -0.0153 H   0  0  0  0  0  0  0  0  0  0  0  0
    2.7937    0.1293    1.4668 H   0  0  0  0  0  0  0  0  0  0  0  0
    3.5327   -0.6932    0.0667 H   0  0  0  0  0  0  0  0  0  0  0  0
    0.8741    0.7170   -1.3746 H   0  0  0  0  0  0  0  0  0  0  0  0
   -0.5339   -1.7128   -2.0119 H   0  0  0  0  0  0  0  0  0  0  0  0
   -1.0802   -0.0593   -2.2135 H   0  0  0  0  0  0  0  0  0  0  0  0
   -1.2175   -2.8851    0.2994 H   0  0  0  0  0  0  0  0  0  0  0  0
   -2.7312   -2.2318    0.9107 H   0  0  0  0  0  0  0  0  0  0  0  0
   -1.2411   -1.5105    1.5642 H   0  0  0  0  0  0  0  0  0  0  0  0
   -2.4381   -2.1662   -1.8123 H   0  0  0  0  0  0  0  0  0  0  0  0
   -3.2655    0.0670    0.7087 H   0  0  0  0  0  0  0  0  0  0  0  0
   -2.7963    0.9541   -0.7506 H   0  0  0  0  0  0  0  0  0  0  0  0
   -0.6261    1.5870    0.2405 H   0  0  0  0  0  0  0  0  0  0  0  0
   -1.0780    0.7092    1.7938 H   0  0  0  0  0  0  0  0  0  0  0  0
   -2.9883    2.4444    0.7914 H   0  0  0  0  0  0  0  0  0  0  0  0
  1  2  1  0
  2  3  1  0
  3  4  1  0
  4  5  2  0
  4  6  1  0
  6  7  1  0
  7  8  1  0
  8  9  1  0
  8 10  1  6
  8 11  1  0
 11 12  1  0
 12 13  1  0
  1 14  1  0
  1 15  1  0
  1 16  1  0
  3 17  1  0
  3 18  1  0
  6 19  1  0
  7 20  1  0
  7 21  1  0
  9 22  1  0
  9 23  1  0
  9 24  1  0
 10 25  1  0
 11 26  1  0
 11 27  1  0
 12 28  1  0
 12 29  1  0
 13 30  1  0
M  END
$$$$

     RDKit          3D

 30 29  0  0  0  0  0  0  0  0999 V2000
    3.9030    1.2088    0.5047 C   0  0  0  0  0  0  0  0  0  0  0  0
    3.7344   -0.0776    1.0461 O   0  0  0  0  0  0  0  0  0  0  0  0
    3.3130   -0.9534    0.0895 C   0  0  0  0  0  0  0  0  0  0  0  0
    1.9322   -0.6450   -0.3499 C   0  0  0  0  0  0  0  0  0  0  0  0
    1.5565   -1.1955   -1.4068 O   0  0  0  0  0  0  0  0  0  0  0  0
    1.0693    0.2093    0.3620 N   0  0  0  0  0  0  0  0  0  0  0  0
   -0.2694    0.5520    0.0007 C   0  0  0  0  0  0  0  0  0  0  0  0
   -1.2404   -0.5911   -0.0298 C   0  0  2  0  0  0  0  0  0  0  0  0
   -1.3323   -1.2700    1.3403 C   0  0  0  0  0  0  0  0  0  0  0  0
   -0.8622   -1.5489   -0.9485 O   0  0  0  0  0  0  0  0  0  0  0  0
   -2.6037   -0.0720   -0.4381 C   0  0  0  0  0  0  0  0  0  0  0  0
   -3.1680    0.9614    0.4807 C   0  0  0  0  0  0  0  0  0  0  0  0
   -4.4312    1.3108   -0.0584 O   0  0  0  0  0  0  0  0  0  0  0  0
    4.7198    1.1579   -0.2947 H   0  0  0  0  0  0  0  0  0  0  0  0
    4.1720    1.8770    1.3245 H   0  0  0  0  0  0  0  0  0  0  0  0
    3.0056    1.5190   -0.0465 H   0  0  0  0  0  0  0  0  0  0  0  0
    3.9928   -0.8427   -0.8053 H   0  0  0  0  0  0  0  0  0  0  0  0
    3.3772   -2.0119    0.4504 H   0  0  0  0  0  0  0  0  0  0  0  0
    1.4369    0.6256    1.2814 H   0  0  0  0  0  0  0  0  0  0  0  0
   -0.6272    1.3817    0.6598 H   0  0  0  0  0  0  0  0  0  0  0  0
   -0.2705    0.9581   -1.0642 H   0  0  0  0  0  0  0  0  0  0  0  0
   -2.3116   -1.7498    1.4659 H   0  0  0  0  0  0  0  0  0  0  0  0
   -0.5420   -2.0492    1.3679 H   0  0  0  0  0  0  0  0  0  0  0  0
   -1.1111   -0.5513    2.1536 H   0  0  0  0  0  0  0  0  0  0  0  0
   -1.1971   -2.4293   -0.6229 H   0  0  0  0  0  0  0  0  0  0  0  0
   -3.3262   -0.9171   -0.5124 H   0  0  0  0  0  0  0  0  0  0  0  0
   -2.5255    0.3689   -1.4456 H   0  0  0  0  0  0  0  0  0  0  0  0
   -3.2634    0.6081    1.5271 H   0  0  0  0  0  0  0  0  0  0  0  0
   -2.5590    1.8908    0.3989 H   0  0  0  0  0  0  0  0  0  0  0  0
   -4.5718    2.2755   -0.0495 H   0  0  0  0  0  0  0  0  0  0  0  0
  1  2  1  0
  2  3  1  0
  3  4  1  0
  4  5  2  0
  4  6  1  0
  6  7  1  0
  7  8  1  0
  8  9  1  0
  8 10  1  6
  8 11  1  0
 11 12  1  0
 12 13  1  0
  1 14  1  0
  1 15  1  0
  1 16  1  0
  3 17  1  0
  3 18  1  0
  6 19  1  0
  7 20  1  0
  7 21  1  0
  9 22  1  0
  9 23  1  0
  9 24  1  0
 10 25  1  0
 11 26  1  0
 11 27  1  0
 12 28  1  0
 12 29  1  0
 13 30  1  0
M  END
$$$$

     RDKit          3D

 30 29  0  0  0  0  0  0  0  0999 V2000
    4.6648    0.7995    0.4969 C   0  0  0  0  0  0  0  0  0  0  0  0
    3.3326    0.4842    0.3677 O   0  0  0  0  0  0  0  0  0  0  0  0
    3.2155   -0.8890    0.1846 C   0  0  0  0  0  0  0  0  0  0  0  0
    1.7820   -1.2214    0.0465 C   0  0  0  0  0  0  0  0  0  0  0  0
    1.4331   -2.4122   -0.1288 O   0  0  0  0  0  0  0  0  0  0  0  0
    0.7765   -0.2259    0.1066 N   0  0  0  0  0  0  0  0  0  0  0  0
   -0.6114   -0.6152   -0.0357 C   0  0  0  0  0  0  0  0  0  0  0  0
   -1.5358    0.5803    0.0553 C   0  0  2  0  0  0  0  0  0  0  0  0
   -1.0943    1.5585   -1.0149 C   0  0  0  0  0  0  0  0  0  0  0  0
   -1.3804    1.1960    1.2848 O   0  0  0  0  0  0  0  0  0  0  0  0
   -2.9603    0.2335   -0.1942 C   0  0  0  0  0  0  0  0  0  0  0  0
   -3.5065   -0.7802    0.7869 C   0  0  0  0  0  0  0  0  0  0  0  0
   -4.8361   -1.0549    0.4940 O   0  0  0  0  0  0  0  0  0  0  0  0
    5.2144    0.4882   -0.4366 H   0  0  0  0  0  0  0  0  0  0  0  0
    4.8611    1.8750    0.6120 H   0  0  0  0  0  0  0  0  0  0  0  0
    5.0957    0.1915    1.3126 H   0  0  0  0  0  0  0  0  0  0  0  0
    3.7384   -1.1197   -0.7801 H   0  0  0  0  0  0  0  0  0  0  0  0
    3.6802   -1.4373    1.0159 H   0  0  0  0  0  0  0  0  0  0  0  0
    1.0888    0.7554    0.2527 H   0  0  0  0  0  0  0  0  0  0  0  0
   -0.8340   -1.3022    0.8057 H   0  0  0  0  0  0  0  0  0  0  0  0
   -0.7152   -1.1573   -0.9845 H   0  0  0  0  0  0  0  0  0  0  0  0
   -1.9589    2.2125   -1.2389 H   0  0  0  0  0  0  0  0  0  0  0  0
   -0.2456    2.1797   -0.6583 H   0  0  0  0  0  0  0  0  0  0  0  0
   -0.7670    1.0372   -1.9378 H   0  0  0  0  0  0  0  0  0  0  0  0
   -0.4904    1.5940    1.3789 H   0  0  0  0  0  0  0  0  0  0  0  0
   -3.1468   -0.1292   -1.2217 H   0  0  0  0  0  0  0  0  0  0  0  0
   -3.5637    1.1564   -0.0760 H   0  0  0  0  0  0  0  0  0  0  0  0
   -2.9233   -1.7261    0.6810 H   0  0  0  0  0  0  0  0  0  0  0  0
   -3.4518   -0.4363    1.8259 H   0  0  0  0  0  0  0  0  0  0  0  0
   -4.8614   -1.8348   -0.1183 H   0  0  0  0  0  0  0  0  0  0  0  0
  1  2  1  0
  2  3  1  0
  3  4  1  0
  4  5  2  0
  4  6  1  0
  6  7  1  0
  7  8  1  0
  8  9  1  0
  8 10  1  1
  8 11  1  0
 11 12  1  0
 12 13  1  0
  1 14  1  0
  1 15  1  0
  1 16  1  0
  3 17  1  0
  3 18  1  0
  6 19  1  0
  7 20  1  0
  7 21  1  0
  9 22  1  0
  9 23  1  0
  9 24  1  0
 10 25  1  0
 11 26  1  0
 11 27  1  0
 12 28  1  0
 12 29  1  0
 13 30  1  0
M  END
$$$$

     RDKit          3D

 30 29  0  0  0  0  0  0  0  0999 V2000
    4.8857    0.9738   -0.0314 C   0  0  0  0  0  0  0  0  0  0  0  0
    4.6214   -0.3359   -0.2988 O   0  0  0  0  0  0  0  0  0  0  0  0
    3.4505   -0.8629    0.1787 C   0  0  0  0  0  0  0  0  0  0  0  0
    2.2634   -0.2291   -0.4079 C   0  0  0  0  0  0  0  0  0  0  0  0
    2.3920    0.6428   -1.2983 O   0  0  0  0  0  0  0  0  0  0  0  0
    0.9283   -0.5804    0.0118 N   0  0  0  0  0  0  0  0  0  0  0  0
   -0.1598    0.0830   -0.6094 C   0  0  0  0  0  0  0  0  0  0  0  0
   -1.5137   -0.3353   -0.1210 C   0  0  2  0  0  0  0  0  0  0  0  0
   -1.6999   -0.0917    1.3514 C   0  0  0  0  0  0  0  0  0  0  0  0
   -1.7096   -1.7175   -0.3479 O   0  0  0  0  0  0  0  0  0  0  0  0
   -2.5137    0.4405   -0.9527 C   0  0  0  0  0  0  0  0  0  0  0  0
   -3.9373    0.1298   -0.5811 C   0  0  0  0  0  0  0  0  0  0  0  0
   -4.2325    0.4241    0.7359 O   0  0  0  0  0  0  0  0  0  0  0  0
    4.9076    1.1108    1.0888 H   0  0  0  0  0  0  0  0  0  0  0  0
    4.2124    1.6673   -0.5391 H   0  0  0  0  0  0  0  0  0  0  0  0
    5.9418    1.2148   -0.3527 H   0  0  0  0  0  0  0  0  0  0  0  0
    3.4257   -1.9323   -0.1483 H   0  0  0  0  0  0  0  0  0  0  0  0
    3.4114   -0.8878    1.2949 H   0  0  0  0  0  0  0  0  0  0  0  0
    0.8599   -1.3031    0.7480 H   0  0  0  0  0  0  0  0  0  0  0  0
   -0.1262   -0.1613   -1.7066 H   0  0  0  0  0  0  0  0  0  0  0  0
   -0.1024    1.1941   -0.5147 H   0  0  0  0  0  0  0  0  0  0  0  0
   -2.4788   -0.8139    1.7297 H   0  0  0  0  0  0  0  0  0  0  0  0
   -2.0189    0.9404    1.5822 H   0  0  0  0  0  0  0  0  0  0  0  0
   -0.7844   -0.3259    1.9149 H   0  0  0  0  0  0  0  0  0  0  0  0
   -2.1878   -2.1317    0.4138 H   0  0  0  0  0  0  0  0  0  0  0  0
   -2.2572    1.5142   -0.8624 H   0  0  0  0  0  0  0  0  0  0  0  0
   -2.3628    0.1499   -2.0061 H   0  0  0  0  0  0  0  0  0  0  0  0
   -4.1366   -0.9138   -0.8650 H   0  0  0  0  0  0  0  0  0  0  0  0
   -4.5841    0.7683   -1.2174 H   0  0  0  0  0  0  0  0  0  0  0  0
   -4.4944    1.3687    0.8526 H   0  0  0  0  0  0  0  0  0  0  0  0
  1  2  1  0
  2  3  1  0
  3  4  1  0
  4  5  2  0
  4  6  1  0
  6  7  1  0
  7  8  1  0
  8  9  1  0
  8 10  1  1
  8 11  1  0
 11 12  1  0
 12 13  1  0
  1 14  1  0
  1 15  1  0
  1 16  1  0
  3 17  1  0
  3 18  1  0
  6 19  1  0
  7 20  1  0
  7 21  1  0
  9 22  1  0
  9 23  1  0
  9 24  1  0
 10 25  1  0
 11 26  1  0
 11 27  1  0
 12 28  1  0
 12 29  1  0
 13 30  1  0
M  END
$$$$

     RDKit          3D

 30 29  0  0  0  0  0  0  0  0999 V2000
    4.5660    0.6077    0.1718 C   0  0  0  0  0  0  0  0  0  0  0  0
    4.2070   -0.2159   -0.8714 O   0  0  0  0  0  0  0  0  0  0  0  0
    2.8991   -0.1661   -1.2247 C   0  0  0  0  0  0  0  0  0  0  0  0
    1.9306   -0.6033   -0.2059 C   0  0  0  0  0  0  0  0  0  0  0  0
    2.2672   -1.0480    0.9028 O   0  0  0  0  0  0  0  0  0  0  0  0
    0.5192   -0.5160   -0.4975 N   0  0  0  0  0  0  0  0  0  0  0  0
   -0.4581   -0.9404    0.4894 C   0  0  0  0  0  0  0  0  0  0  0  0
   -1.8433   -0.7381   -0.0747 C   0  0  2  0  0  0  0  0  0  0  0  0
   -2.8729   -1.2686    0.9046 C   0  0  0  0  0  0  0  0  0  0  0  0
   -1.9192   -1.5179   -1.2361 O   0  0  0  0  0  0  0  0  0  0  0  0
   -2.0864    0.6946   -0.4284 C   0  0  0  0  0  0  0  0  0  0  0  0
   -1.9614    1.6138    0.7559 C   0  0  0  0  0  0  0  0  0  0  0  0
   -2.2064    2.9290    0.3272 O   0  0  0  0  0  0  0  0  0  0  0  0
    4.0106    0.3505    1.0782 H   0  0  0  0  0  0  0  0  0  0  0  0
    5.6716    0.5675    0.3227 H   0  0  0  0  0  0  0  0  0  0  0  0
    4.2821    1.6733   -0.0781 H   0  0  0  0  0  0  0  0  0  0  0  0
    2.7751   -0.7234   -2.1898 H   0  0  0  0  0  0  0  0  0  0  0  0
    2.6109    0.9019   -1.4661 H   0  0  0  0  0  0  0  0  0  0  0  0
    0.2776   -0.1400   -1.4366 H   0  0  0  0  0  0  0  0  0  0  0  0
   -0.3658   -2.0435    0.6811 H   0  0  0  0  0  0  0  0  0  0  0  0
   -0.3962   -0.3645    1.4315 H   0  0  0  0  0  0  0  0  0  0  0  0
   -2.4702   -2.2439    1.3059 H   0  0  0  0  0  0  0  0  0  0  0  0
   -3.8456   -1.4526    0.4175 H   0  0  0  0  0  0  0  0  0  0  0  0
   -3.0099   -0.6170    1.7733 H   0  0  0  0  0  0  0  0  0  0  0  0
   -1.7071   -2.4328   -0.9815 H   0  0  0  0  0  0  0  0  0  0  0  0
   -3.1215    0.8230   -0.8285 H   0  0  0  0  0  0  0  0  0  0  0  0
   -1.3623    1.0249   -1.1971 H   0  0  0  0  0  0  0  0  0  0  0  0
   -2.7135    1.3860    1.5220 H   0  0  0  0  0  0  0  0  0  0  0  0
   -0.9156    1.5804    1.1275 H   0  0  0  0  0  0  0  0  0  0  0  0
   -2.7616    2.8795   -0.4950 H   0  0  0  0  0  0  0  0  0  0  0  0
  1  2  1  0
  2  3  1  0
  3  4  1  0
  4  5  2  0
  4  6  1  0
  6  7  1  0
  7  8  1  0
  8  9  1  0
  8 10  1  6
  8 11  1  0
 11 12  1  0
 12 13  1  0
  1 14  1  0
  1 15  1  0
  1 16  1  0
  3 17  1  0
  3 18  1  0
  6 19  1  0
  7 20  1  0
  7 21  1  0
  9 22  1  0
  9 23  1  0
  9 24  1  0
 10 25  1  0
 11 26  1  0
 11 27  1  0
 12 28  1  0
 12 29  1  0
 13 30  1  0
M  END
$$$$

     RDKit          3D

 30 29  0  0  0  0  0  0  0  0999 V2000
    5.4392   -0.5349    0.7940 C   0  0  0  0  0  0  0  0  0  0  0  0
    4.4166    0.4237    0.7622 O   0  0  0  0  0  0  0  0  0  0  0  0
    3.2540   -0.2370    0.4043 C   0  0  0  0  0  0  0  0  0  0  0  0
    2.1007    0.6851    0.3392 C   0  0  0  0  0  0  0  0  0  0  0  0
    2.2284    1.9038    0.5892 O   0  0  0  0  0  0  0  0  0  0  0  0
    0.8146    0.1981   -0.0118 N   0  0  0  0  0  0  0  0  0  0  0  0
   -0.3351    1.0800   -0.0836 C   0  0  0  0  0  0  0  0  0  0  0  0
   -1.5559    0.2547   -0.4755 C   0  0  2  0  0  0  0  0  0  0  0  0
   -1.7743   -0.8337    0.5469 C   0  0  0  0  0  0  0  0  0  0  0  0
   -1.3368   -0.3575   -1.7083 O   0  0  0  0  0  0  0  0  0  0  0  0
   -2.7646    1.1369   -0.6586 C   0  0  0  0  0  0  0  0  0  0  0  0
   -3.9356    0.2794   -1.0563 C   0  0  0  0  0  0  0  0  0  0  0  0
   -4.2189   -0.6549   -0.0876 O   0  0  0  0  0  0  0  0  0  0  0  0
    5.1391   -1.2996    1.5569 H   0  0  0  0  0  0  0  0  0  0  0  0
    6.4249   -0.1047    0.9926 H   0  0  0  0  0  0  0  0  0  0  0  0
    5.4779   -1.0682   -0.1729 H   0  0  0  0  0  0  0  0  0  0  0  0
    3.0876   -1.0530    1.1463 H   0  0  0  0  0  0  0  0  0  0  0  0
    3.4329   -0.7387   -0.5849 H   0  0  0  0  0  0  0  0  0  0  0  0
    0.7286   -0.8414   -0.2247 H   0  0  0  0  0  0  0  0  0  0  0  0
   -0.1800    1.8719   -0.8581 H   0  0  0  0  0  0  0  0  0  0  0  0
   -0.5287    1.5736    0.8907 H   0  0  0  0  0  0  0  0  0  0  0  0
   -0.8114   -1.1178    1.0418 H   0  0  0  0  0  0  0  0  0  0  0  0
   -2.4562   -0.5103    1.3829 H   0  0  0  0  0  0  0  0  0  0  0  0
   -2.1974   -1.7614    0.1110 H   0  0  0  0  0  0  0  0  0  0  0  0
   -1.3833   -1.3413   -1.6542 H   0  0  0  0  0  0  0  0  0  0  0  0
   -2.5221    1.8168   -1.5177 H   0  0  0  0  0  0  0  0  0  0  0  0
   -2.9729    1.7724    0.2091 H   0  0  0  0  0  0  0  0  0  0  0  0
   -3.6809   -0.3076   -1.9877 H   0  0  0  0  0  0  0  0  0  0  0  0
   -4.8181    0.8831   -1.3530 H   0  0  0  0  0  0  0  0  0  0  0  0
   -5.0724   -1.1175   -0.2896 H   0  0  0  0  0  0  0  0  0  0  0  0
  1  2  1  0
  2  3  1  0
  3  4  1  0
  4  5  2  0
  4  6  1  0
  6  7  1  0
  7  8  1  0
  8  9  1  0
  8 10  1  6
  8 11  1  0
 11 12  1  0
 12 13  1  0
  1 14  1  0
  1 15  1  0
  1 16  1  0
  3 17  1  0
  3 18  1  0
  6 19  1  0
  7 20  1  0
  7 21  1  0
  9 22  1  0
  9 23  1  0
  9 24  1  0
 10 25  1  0
 11 26  1  0
 11 27  1  0
 12 28  1  0
 12 29  1  0
 13 30  1  0
M  END
$$$$
