
     RDKit          3D

 25 26  0  0  0  0  0  0  0  0999 V2000
    4.0901    0.2735   -0.7788 C   0  0  0  0  0  0  0  0  0  0  0  0
    2.7698   -0.1881   -0.3632 N   0  0  0  0  0  0  0  0  0  0  0  0
    2.4137   -0.6302    0.8182 N   0  0  0  0  0  0  0  0  0  0  0  0
    1.1193   -0.9424    0.7531 C   0  0  0  0  0  0  0  0  0  0  0  0
    0.3625   -1.4496    1.8081 O   0  0  0  0  0  0  0  0  0  0  0  0
    0.6625   -0.6956   -0.4715 N   0  0  0  0  0  0  0  0  0  0  0  0
   -0.6755   -0.8877   -0.9780 C   0  0  0  0  0  0  0  0  0  0  0  0
   -1.4900    0.3523   -0.7706 C   0  0  1  0  0  0  0  0  0  0  0  0
   -2.8945    0.4611   -1.1843 C   0  0  0  0  0  0  0  0  0  0  0  0
   -2.5790    0.2633    0.2335 C   0  0  2  0  0  0  0  0  0  0  0  0
   -2.6801    1.3634    1.1538 N   0  0  0  0  0  0  0  0  0  0  0  0
    1.7079   -0.2139   -1.1917 C   0  0  0  0  0  0  0  0  0  0  0  0
    1.6461    0.1313   -2.4069 O   0  0  0  0  0  0  0  0  0  0  0  0
    4.2775   -0.0195   -1.8129 H   0  0  0  0  0  0  0  0  0  0  0  0
    4.8589   -0.1323   -0.1215 H   0  0  0  0  0  0  0  0  0  0  0  0
    4.0829    1.3751   -0.6382 H   0  0  0  0  0  0  0  0  0  0  0  0
    0.1342   -0.7982    2.5527 H   0  0  0  0  0  0  0  0  0  0  0  0
   -0.6429   -1.1306   -2.0602 H   0  0  0  0  0  0  0  0  0  0  0  0
   -1.1116   -1.7690   -0.4355 H   0  0  0  0  0  0  0  0  0  0  0  0
   -0.8875    1.2965   -0.8650 H   0  0  0  0  0  0  0  0  0  0  0  0
   -3.2991    1.4673   -1.4547 H   0  0  0  0  0  0  0  0  0  0  0  0
   -3.2847   -0.3413   -1.8414 H   0  0  0  0  0  0  0  0  0  0  0  0
   -2.8061   -0.7438    0.6556 H   0  0  0  0  0  0  0  0  0  0  0  0
   -3.6311    1.7332    1.2760 H   0  0  0  0  0  0  0  0  0  0  0  0
   -2.1436    1.2252    2.0304 H   0  0  0  0  0  0  0  0  0  0  0  0
  1  2  1  0
  2  3  1  0
  3  4  2  0
  4  5  1  0
  4  6  1  0
  6  7  1  0
  7  8  1  0
  8  9  1  0
  9 10  1  0
 10 11  1  0
  6 12  1  0
 12 13  2  0
 12  2  1  0
 10  8  1  0
  1 14  1  0
  1 15  1  0
  1 16  1  0
  5 17  1  0
  7 18  1  0
  7 19  1  0
  8 20  1  1
  9 21  1  0
  9 22  1  0
 10 23  1  1
 11 24  1  0
 11 25  1  0
M  END
$$$$

     RDKit          3D

 25 26  0  0  0  0  0  0  0  0999 V2000
    4.1673    0.6931   -0.4265 C   0  0  0  0  0  0  0  0  0  0  0  0
    2.8431    0.2930    0.0635 N   0  0  0  0  0  0  0  0  0  0  0  0
    2.5573   -0.8557    0.6394 N   0  0  0  0  0  0  0  0  0  0  0  0
    1.2486   -0.8488    0.9456 C   0  0  0  0  0  0  0  0  0  0  0  0
    0.6242   -1.9363    1.5744 O   0  0  0  0  0  0  0  0  0  0  0  0
    0.6959    0.3116    0.5627 N   0  0  0  0  0  0  0  0  0  0  0  0
   -0.6773    0.7112    0.7103 C   0  0  0  0  0  0  0  0  0  0  0  0
   -1.5509    0.3445   -0.4416 C   0  0  1  0  0  0  0  0  0  0  0  0
   -1.7720   -1.0275   -0.8934 C   0  0  0  0  0  0  0  0  0  0  0  0
   -2.8115   -0.4484   -0.0355 C   0  0  2  0  0  0  0  0  0  0  0  0
   -4.0518    0.0644   -0.5475 N   0  0  0  0  0  0  0  0  0  0  0  0
    1.6976    1.0153    0.0146 C   0  0  0  0  0  0  0  0  0  0  0  0
    1.6425    2.1696   -0.4832 O   0  0  0  0  0  0  0  0  0  0  0  0
    4.9515    0.4392    0.3332 H   0  0  0  0  0  0  0  0  0  0  0  0
    4.2259    1.7844   -0.5711 H   0  0  0  0  0  0  0  0  0  0  0  0
    4.3567    0.1005   -1.3306 H   0  0  0  0  0  0  0  0  0  0  0  0
    0.4923   -2.7530    0.9907 H   0  0  0  0  0  0  0  0  0  0  0  0
   -1.0643    0.3012    1.6898 H   0  0  0  0  0  0  0  0  0  0  0  0
   -0.7608    1.8304    0.8475 H   0  0  0  0  0  0  0  0  0  0  0  0
   -1.7244    1.1542   -1.2107 H   0  0  0  0  0  0  0  0  0  0  0  0
   -2.0581   -1.1934   -1.9589 H   0  0  0  0  0  0  0  0  0  0  0  0
   -1.1850   -1.8925   -0.4959 H   0  0  0  0  0  0  0  0  0  0  0  0
   -2.8631   -0.8273    1.0006 H   0  0  0  0  0  0  0  0  0  0  0  0
   -4.8300   -0.4789   -0.1110 H   0  0  0  0  0  0  0  0  0  0  0  0
   -4.1536    1.0492   -0.1695 H   0  0  0  0  0  0  0  0  0  0  0  0
  1  2  1  0
  2  3  1  0
  3  4  2  0
  4  5  1  0
  4  6  1  0
  6  7  1  0
  7  8  1  0
  8  9  1  0
  9 10  1  0
 10 11  1  0
  6 12  1  0
 12 13  2  0
 12  2  1  0
 10  8  1  0
  1 14  1  0
  1 15  1  0
  1 16  1  0
  5 17  1  0
  7 18  1  0
  7 19  1  0
  8 20  1  6
  9 21  1  0
  9 22  1  0
 10 23  1  1
 11 24  1  0
 11 25  1  0
M  END
$$$$

     RDKit          3D

 25 26  0  0  0  0  0  0  0  0999 V2000
   -3.7607    0.6274   -1.2676 C   0  0  0  0  0  0  0  0  0  0  0  0
   -2.6877   -0.0386   -0.5189 N   0  0  0  0  0  0  0  0  0  0  0  0
   -2.7950   -0.6743    0.6385 N   0  0  0  0  0  0  0  0  0  0  0  0
   -1.5679   -1.1274    0.9536 C   0  0  0  0  0  0  0  0  0  0  0  0
   -1.2537   -1.8594    2.1150 O   0  0  0  0  0  0  0  0  0  0  0  0
   -0.7250   -0.7567   -0.0267 N   0  0  0  0  0  0  0  0  0  0  0  0
    0.6952   -1.0447   -0.0769 C   0  0  0  0  0  0  0  0  0  0  0  0
    1.5019    0.0530    0.5918 C   0  0  1  0  0  0  0  0  0  0  0  0
    3.0094   -0.1882    0.5744 C   0  0  0  0  0  0  0  0  0  0  0  0
    2.3816    0.9187   -0.2256 C   0  0  2  0  0  0  0  0  0  0  0  0
    2.6957    2.2532    0.2577 N   0  0  0  0  0  0  0  0  0  0  0  0
   -1.4198   -0.0703   -0.9591 C   0  0  0  0  0  0  0  0  0  0  0  0
   -0.9422    0.4280   -2.0202 O   0  0  0  0  0  0  0  0  0  0  0  0
   -3.8498    1.6774   -0.8881 H   0  0  0  0  0  0  0  0  0  0  0  0
   -4.6834    0.0669   -1.0859 H   0  0  0  0  0  0  0  0  0  0  0  0
   -3.5131    0.6458   -2.3463 H   0  0  0  0  0  0  0  0  0  0  0  0
   -1.5091   -2.8349    2.1459 H   0  0  0  0  0  0  0  0  0  0  0  0
    0.8523   -1.9922    0.4864 H   0  0  0  0  0  0  0  0  0  0  0  0
    1.0078   -1.1860   -1.1219 H   0  0  0  0  0  0  0  0  0  0  0  0
    1.1184    0.5010    1.5233 H   0  0  0  0  0  0  0  0  0  0  0  0
    3.3996   -1.0318   -0.0132 H   0  0  0  0  0  0  0  0  0  0  0  0
    3.5822    0.0788    1.5023 H   0  0  0  0  0  0  0  0  0  0  0  0
    2.3994    0.8411   -1.3384 H   0  0  0  0  0  0  0  0  0  0  0  0
    3.7364    2.3464    0.2725 H   0  0  0  0  0  0  0  0  0  0  0  0
    2.3275    2.3669    1.2265 H   0  0  0  0  0  0  0  0  0  0  0  0
  1  2  1  0
  2  3  1  0
  3  4  2  0
  4  5  1  0
  4  6  1  0
  6  7  1  0
  7  8  1  0
  8  9  1  0
  9 10  1  0
 10 11  1  0
  6 12  1  0
 12 13  2  0
 12  2  1  0
 10  8  1  0
  1 14  1  0
  1 15  1  0
  1 16  1  0
  5 17  1  0
  7 18  1  0
  7 19  1  0
  8 20  1  1
  9 21  1  0
  9 22  1  0
 10 23  1  6
 11 24  1  0
 11 25  1  0
M  END
$$$$

     RDKit          3D

 25 26  0  0  0  0  0  0  0  0999 V2000
    3.8606   -0.9954   -0.3358 C   0  0  0  0  0  0  0  0  0  0  0  0
    2.7163   -0.2305    0.1205 N   0  0  0  0  0  0  0  0  0  0  0  0
    2.6670    1.0556    0.3469 N   0  0  0  0  0  0  0  0  0  0  0  0
    1.4529    1.4116    0.7560 C   0  0  0  0  0  0  0  0  0  0  0  0
    0.9934    2.6949    1.1003 O   0  0  0  0  0  0  0  0  0  0  0  0
    0.6995    0.3009    0.7901 N   0  0  0  0  0  0  0  0  0  0  0  0
   -0.6911    0.1815    1.1742 C   0  0  0  0  0  0  0  0  0  0  0  0
   -1.6156    0.3617    0.0101 C   0  0  1  0  0  0  0  0  0  0  0  0
   -1.6136   -0.4844   -1.1812 C   0  0  0  0  0  0  0  0  0  0  0  0
   -2.7338   -0.6370   -0.1827 C   0  0  2  0  0  0  0  0  0  0  0  0
   -4.0307   -0.1829   -0.5852 N   0  0  0  0  0  0  0  0  0  0  0  0
    1.4750   -0.7069    0.4001 C   0  0  0  0  0  0  0  0  0  0  0  0
    1.1563   -1.9367    0.2894 O   0  0  0  0  0  0  0  0  0  0  0  0
    4.5544   -1.2614    0.4793 H   0  0  0  0  0  0  0  0  0  0  0  0
    4.4142   -0.4123   -1.1013 H   0  0  0  0  0  0  0  0  0  0  0  0
    3.4743   -1.9200   -0.7988 H   0  0  0  0  0  0  0  0  0  0  0  0
    1.2249    3.4705    0.4915 H   0  0  0  0  0  0  0  0  0  0  0  0
   -0.8573   -0.8072    1.6462 H   0  0  0  0  0  0  0  0  0  0  0  0
   -0.8893    0.9720    1.9203 H   0  0  0  0  0  0  0  0  0  0  0  0
   -1.9531    1.4123   -0.1408 H   0  0  0  0  0  0  0  0  0  0  0  0
   -1.9070   -0.0182   -2.1674 H   0  0  0  0  0  0  0  0  0  0  0  0
   -0.9755   -1.3643   -1.3383 H   0  0  0  0  0  0  0  0  0  0  0  0
   -2.7080   -1.4809    0.5440 H   0  0  0  0  0  0  0  0  0  0  0  0
   -4.7149   -0.1991    0.1896 H   0  0  0  0  0  0  0  0  0  0  0  0
   -3.9991    0.7761   -1.0018 H   0  0  0  0  0  0  0  0  0  0  0  0
  1  2  1  0
  2  3  1  0
  3  4  2  0
  4  5  1  0
  4  6  1  0
  6  7  1  0
  7  8  1  0
  8  9  1  0
  9 10  1  0
 10 11  1  0
  6 12  1  0
 12 13  2  0
 12  2  1  0
 10  8  1  0
  1 14  1  0
  1 15  1  0
  1 16  1  0
  5 17  1  0
  7 18  1  0
  7 19  1  0
  8 20  1  6
  9 21  1  0
  9 22  1  0
 10 23  1  1
 11 24  1  0
 11 25  1  0
M  END
$$$$

     RDKit          3D

 25 26  0  0  0  0  0  0  0  0999 V2000
    3.8597    0.4754    0.9853 C   0  0  0  0  0  0  0  0  0  0  0  0
    2.7244   -0.0157    0.2177 N   0  0  0  0  0  0  0  0  0  0  0  0
    2.6302   -1.1580   -0.4401 N   0  0  0  0  0  0  0  0  0  0  0  0
    1.4326   -1.2776   -1.0348 C   0  0  0  0  0  0  0  0  0  0  0  0
    0.9300   -2.3114   -1.8150 O   0  0  0  0  0  0  0  0  0  0  0  0
    0.7398   -0.1694   -0.7437 N   0  0  0  0  0  0  0  0  0  0  0  0
   -0.6002    0.2032   -1.1445 C   0  0  0  0  0  0  0  0  0  0  0  0
   -1.6762   -0.2544   -0.2264 C   0  0  1  0  0  0  0  0  0  0  0  0
   -1.7921    0.1149    1.1882 C   0  0  0  0  0  0  0  0  0  0  0  0
   -2.7139    0.8097    0.2203 C   0  0  2  0  0  0  0  0  0  0  0  0
   -4.0883    0.4242    0.3118 N   0  0  0  0  0  0  0  0  0  0  0  0
    1.5270    0.5941    0.0164 C   0  0  0  0  0  0  0  0  0  0  0  0
    1.3028    1.7408    0.5350 O   0  0  0  0  0  0  0  0  0  0  0  0
    4.7418    0.3857    0.3175 H   0  0  0  0  0  0  0  0  0  0  0  0
    4.0080   -0.0970    1.9110 H   0  0  0  0  0  0  0  0  0  0  0  0
    3.7125    1.5508    1.2100 H   0  0  0  0  0  0  0  0  0  0  0  0
    1.4334   -3.1746   -1.9559 H   0  0  0  0  0  0  0  0  0  0  0  0
   -0.6729    1.3271   -1.2422 H   0  0  0  0  0  0  0  0  0  0  0  0
   -0.7521   -0.1943   -2.1619 H   0  0  0  0  0  0  0  0  0  0  0  0
   -2.1925   -1.1938   -0.5861 H   0  0  0  0  0  0  0  0  0  0  0  0
   -2.2338   -0.6873    1.8510 H   0  0  0  0  0  0  0  0  0  0  0  0
   -0.9906    0.7385    1.6229 H   0  0  0  0  0  0  0  0  0  0  0  0
   -2.4855    1.8612   -0.0170 H   0  0  0  0  0  0  0  0  0  0  0  0
   -4.2132   -0.5906    0.3769 H   0  0  0  0  0  0  0  0  0  0  0  0
   -4.6309    0.8985   -0.4329 H   0  0  0  0  0  0  0  0  0  0  0  0
  1  2  1  0
  2  3  1  0
  3  4  2  0
  4  5  1  0
  4  6  1  0
  6  7  1  0
  7  8  1  0
  8  9  1  0
  9 10  1  0
 10 11  1  0
  6 12  1  0
 12 13  2  0
 12  2  1  0
 10  8  1  0
  1 14  1  0
  1 15  1  0
  1 16  1  0
  5 17  1  0
  7 18  1  0
  7 19  1  0
  8 20  1  1
  9 21  1  0
  9 22  1  0
 10 23  1  6
 11 24  1  0
 11 25  1  0
M  END
$$$$

     RDKit          3D

 25 26  0  0  0  0  0  0  0  0999 V2000
    3.8427    1.2596    0.7854 C   0  0  0  0  0  0  0  0  0  0  0  0
    2.7707    0.3820    0.4090 N   0  0  0  0  0  0  0  0  0  0  0  0
    2.8425   -0.5544   -0.5076 N   0  0  0  0  0  0  0  0  0  0  0  0
    1.6564   -1.1792   -0.5965 C   0  0  0  0  0  0  0  0  0  0  0  0
    1.3860   -2.2089   -1.4564 O   0  0  0  0  0  0  0  0  0  0  0  0
    0.8111   -0.6223    0.2885 N   0  0  0  0  0  0  0  0  0  0  0  0
   -0.5506   -1.0111    0.4973 C   0  0  0  0  0  0  0  0  0  0  0  0
   -1.5188   -0.2625   -0.3772 C   0  0  1  0  0  0  0  0  0  0  0  0
   -2.9829   -0.6756   -0.1577 C   0  0  0  0  0  0  0  0  0  0  0  0
   -2.5250    0.6435    0.3319 C   0  0  2  0  0  0  0  0  0  0  0  0
   -2.9026    1.8559   -0.3571 N   0  0  0  0  0  0  0  0  0  0  0  0
    1.5132    0.3428    0.9045 C   0  0  0  0  0  0  0  0  0  0  0  0
    1.0631    1.0895    1.8017 O   0  0  0  0  0  0  0  0  0  0  0  0
    3.7270    2.2841    0.3733 H   0  0  0  0  0  0  0  0  0  0  0  0
    3.8319    1.3284    1.9009 H   0  0  0  0  0  0  0  0  0  0  0  0
    4.8093    0.8320    0.4706 H   0  0  0  0  0  0  0  0  0  0  0  0
    1.1119   -3.1407   -1.1642 H   0  0  0  0  0  0  0  0  0  0  0  0
   -0.6643   -2.0994    0.2415 H   0  0  0  0  0  0  0  0  0  0  0  0
   -0.8880   -0.9191    1.5482 H   0  0  0  0  0  0  0  0  0  0  0  0
   -1.2750   -0.0422   -1.4271 H   0  0  0  0  0  0  0  0  0  0  0  0
   -3.2011   -1.4482    0.5951 H   0  0  0  0  0  0  0  0  0  0  0  0
   -3.6486   -0.6947   -1.0457 H   0  0  0  0  0  0  0  0  0  0  0  0
   -2.3815    0.7809    1.4311 H   0  0  0  0  0  0  0  0  0  0  0  0
   -3.2506    1.6864   -1.3179 H   0  0  0  0  0  0  0  0  0  0  0  0
   -3.5767    2.3733    0.2399 H   0  0  0  0  0  0  0  0  0  0  0  0
  1  2  1  0
  2  3  1  0
  3  4  2  0
  4  5  1  0
  4  6  1  0
  6  7  1  0
  7  8  1  0
  8  9  1  0
  9 10  1  0
 10 11  1  0
  6 12  1  0
 12 13  2  0
 12  2  1  0
 10  8  1  0
  1 14  1  0
  1 15  1  0
  1 16  1  0
  5 17  1  0
  7 18  1  0
  7 19  1  0
  8 20  1  6
  9 21  1  0
  9 22  1  0
 10 23  1  1
 11 24  1  0
 11 25  1  0
M  END
$$$$

     RDKit          3D

 25 26  0  0  0  0  0  0  0  0999 V2000
   -3.7903    1.7630    0.5948 C   0  0  0  0  0  0  0  0  0  0  0  0
   -2.7160    0.8430    0.2510 N   0  0  0  0  0  0  0  0  0  0  0  0
   -2.5501    0.1540   -0.8688 N   0  0  0  0  0  0  0  0  0  0  0  0
   -1.4213   -0.5773   -0.7706 C   0  0  0  0  0  0  0  0  0  0  0  0
   -0.8972   -1.4402   -1.7457 O   0  0  0  0  0  0  0  0  0  0  0  0
   -0.9075   -0.3057    0.4532 N   0  0  0  0  0  0  0  0  0  0  0  0
    0.2908   -0.8747    0.9617 C   0  0  0  0  0  0  0  0  0  0  0  0
    1.5327   -0.0944    0.6571 C   0  0  1  0  0  0  0  0  0  0  0  0
    2.7996   -0.7581    1.2323 C   0  0  0  0  0  0  0  0  0  0  0  0
    2.5728   -0.6290   -0.2698 C   0  0  2  0  0  0  0  0  0  0  0  0
    3.4856    0.2767   -0.9075 N   0  0  0  0  0  0  0  0  0  0  0  0
   -1.7046    0.5776    1.0995 C   0  0  0  0  0  0  0  0  0  0  0  0
   -1.4880    1.0213    2.2572 O   0  0  0  0  0  0  0  0  0  0  0  0
   -4.6649    1.5811   -0.0382 H   0  0  0  0  0  0  0  0  0  0  0  0
   -4.0128    1.6556    1.6834 H   0  0  0  0  0  0  0  0  0  0  0  0
   -3.3919    2.8061    0.4787 H   0  0  0  0  0  0  0  0  0  0  0  0
   -1.1386   -2.4389   -1.7113 H   0  0  0  0  0  0  0  0  0  0  0  0
    0.2038   -0.9189    2.0812 H   0  0  0  0  0  0  0  0  0  0  0  0
    0.4401   -1.9115    0.5914 H   0  0  0  0  0  0  0  0  0  0  0  0
    1.5047    1.0145    0.7109 H   0  0  0  0  0  0  0  0  0  0  0  0
    2.7415   -1.7820    1.5911 H   0  0  0  0  0  0  0  0  0  0  0  0
    3.5054   -0.0616    1.7256 H   0  0  0  0  0  0  0  0  0  0  0  0
    2.3246   -1.5185   -0.8504 H   0  0  0  0  0  0  0  0  0  0  0  0
    4.2383    0.6246   -0.2811 H   0  0  0  0  0  0  0  0  0  0  0  0
    3.0432    0.9933   -1.4985 H   0  0  0  0  0  0  0  0  0  0  0  0
  1  2  1  0
  2  3  1  0
  3  4  2  0
  4  5  1  0
  4  6  1  0
  6  7  1  0
  7  8  1  0
  8  9  1  0
  9 10  1  0
 10 11  1  0
  6 12  1  0
 12 13  2  0
 12  2  1  0
 10  8  1  0
  1 14  1  0
  1 15  1  0
  1 16  1  0
  5 17  1  0
  7 18  1  0
  7 19  1  0
  8 20  1  1
  9 21  1  0
  9 22  1  0
 10 23  1  6
 11 24  1  0
 11 25  1  0
M  END
$$$$

     RDKit          3D

 25 26  0  0  0  0  0  0  0  0999 V2000
    3.5479    0.2406    1.8778 C   0  0  0  0  0  0  0  0  0  0  0  0
    2.5994   -0.1583    0.8280 N   0  0  0  0  0  0  0  0  0  0  0  0
    2.8833   -0.4384   -0.4329 N   0  0  0  0  0  0  0  0  0  0  0  0
    1.7444   -0.7601   -1.0732 C   0  0  0  0  0  0  0  0  0  0  0  0
    1.6569   -1.1147   -2.4230 O   0  0  0  0  0  0  0  0  0  0  0  0
    0.7538   -0.6691   -0.1683 N   0  0  0  0  0  0  0  0  0  0  0  0
   -0.6107   -0.9340   -0.4605 C   0  0  0  0  0  0  0  0  0  0  0  0
   -1.4123    0.2265   -0.9211 C   0  0  1  0  0  0  0  0  0  0  0  0
   -2.8795    0.0529   -1.2594 C   0  0  0  0  0  0  0  0  0  0  0  0
   -2.5374    0.6297    0.0532 C   0  0  2  0  0  0  0  0  0  0  0  0
   -2.5665    2.0428    0.3114 N   0  0  0  0  0  0  0  0  0  0  0  0
    1.2756   -0.3009    0.9957 C   0  0  0  0  0  0  0  0  0  0  0  0
    0.6807   -0.1022    2.1073 O   0  0  0  0  0  0  0  0  0  0  0  0
    4.2084    1.0303    1.4819 H   0  0  0  0  0  0  0  0  0  0  0  0
    2.9909    0.6485    2.7193 H   0  0  0  0  0  0  0  0  0  0  0  0
    4.1035   -0.6803    2.1352 H   0  0  0  0  0  0  0  0  0  0  0  0
    1.1633   -1.9517   -2.7183 H   0  0  0  0  0  0  0  0  0  0  0  0
   -0.6487   -1.7433   -1.2458 H   0  0  0  0  0  0  0  0  0  0  0  0
   -1.0625   -1.4114    0.4350 H   0  0  0  0  0  0  0  0  0  0  0  0
   -0.9349    1.0266   -1.5147 H   0  0  0  0  0  0  0  0  0  0  0  0
   -3.2519   -0.9865   -1.2918 H   0  0  0  0  0  0  0  0  0  0  0  0
   -3.3613    0.7161   -1.9854 H   0  0  0  0  0  0  0  0  0  0  0  0
   -2.7124    0.0011    0.9279 H   0  0  0  0  0  0  0  0  0  0  0  0
   -2.1166    2.1818    1.2645 H   0  0  0  0  0  0  0  0  0  0  0  0
   -3.5135    2.4539    0.3571 H   0  0  0  0  0  0  0  0  0  0  0  0
  1  2  1  0
  2  3  1  0
  3  4  2  0
  4  5  1  0
  4  6  1  0
  6  7  1  0
  7  8  1  0
  8  9  1  0
  9 10  1  0
 10 11  1  0
  6 12  1  0
 12 13  2  0
 12  2  1  0
 10  8  1  0
  1 14  1  0
  1 15  1  0
  1 16  1  0
  5 17  1  0
  7 18  1  0
  7 19  1  0
  8 20  1  6
  9 21  1  0
  9 22  1  0
 10 23  1  1
 11 24  1  0
 11 25  1  0
M  END
$$$$
