
     RDKit          3D

 31 30  0  0  0  0  0  0  0  0999 V2000
   -3.6094    1.4943    1.4055 C   0  0  0  0  0  0  0  0  0  0  0  0
   -2.6166    1.2142    0.4800 O   0  0  0  0  0  0  0  0  0  0  0  0
   -2.6318   -0.0962    0.0398 C   0  0  1  0  0  0  0  0  0  0  0  0
   -2.8182   -0.2639   -1.4262 C   0  0  0  0  0  0  0  0  0  0  0  0
   -1.3398   -0.7423    0.4923 C   0  0  1  0  0  0  0  0  0  0  0  0
   -1.3381   -2.0956    0.0437 N   0  0  0  0  0  0  0  0  0  0  0  0
   -0.1972    0.0871    0.0139 C   0  0  0  0  0  0  0  0  0  0  0  0
    1.1247   -0.4790    0.4173 C   0  0  0  0  0  0  0  0  0  0  0  0
    1.2035   -1.5400    1.0855 O   0  0  0  0  0  0  0  0  0  0  0  0
    2.3486    0.1595    0.0617 N   0  0  0  0  0  0  0  0  0  0  0  0
    3.6417   -0.3634    0.4369 C   0  0  0  0  0  0  0  0  0  0  0  0
    4.7078    0.5695   -0.1091 C   0  0  0  0  0  0  0  0  0  0  0  0
    4.6354    0.6608   -1.4897 O   0  0  0  0  0  0  0  0  0  0  0  0
   -3.4847    2.5765    1.6755 H   0  0  0  0  0  0  0  0  0  0  0  0
   -4.6327    1.3933    1.0046 H   0  0  0  0  0  0  0  0  0  0  0  0
   -3.4272    0.9204    2.3276 H   0  0  0  0  0  0  0  0  0  0  0  0
   -3.4691   -0.6321    0.5536 H   0  0  0  0  0  0  0  0  0  0  0  0
   -3.6022    0.4487   -1.8099 H   0  0  0  0  0  0  0  0  0  0  0  0
   -3.2842   -1.2797   -1.5944 H   0  0  0  0  0  0  0  0  0  0  0  0
   -1.9140   -0.2510   -2.0326 H   0  0  0  0  0  0  0  0  0  0  0  0
   -1.3063   -0.7505    1.6019 H   0  0  0  0  0  0  0  0  0  0  0  0
   -0.8954   -2.7779    0.6667 H   0  0  0  0  0  0  0  0  0  0  0  0
   -1.1651   -2.2354   -0.9611 H   0  0  0  0  0  0  0  0  0  0  0  0
   -0.3053    1.0957    0.5125 H   0  0  0  0  0  0  0  0  0  0  0  0
   -0.2105    0.3110   -1.0710 H   0  0  0  0  0  0  0  0  0  0  0  0
    2.2828    1.0231   -0.4823 H   0  0  0  0  0  0  0  0  0  0  0  0
    3.6692   -0.4025    1.5421 H   0  0  0  0  0  0  0  0  0  0  0  0
    3.7958   -1.3857    0.0009 H   0  0  0  0  0  0  0  0  0  0  0  0
    4.6235    1.5726    0.3557 H   0  0  0  0  0  0  0  0  0  0  0  0
    5.7000    0.1681    0.1944 H   0  0  0  0  0  0  0  0  0  0  0  0
    4.5147    1.6004   -1.7432 H   0  0  0  0  0  0  0  0  0  0  0  0
  1  2  1  0
  2  3  1  0
  3  4  1  0
  3  5  1  0
  5  6  1  0
  5  7  1  0
  7  8  1  0
  8  9  2  0
  8 10  1  0
 10 11  1  0
 11 12  1  0
 12 13  1  0
  1 14  1  0
  1 15  1  0
  1 16  1  0
  3 17  1  1
  4 18  1  0
  4 19  1  0
  4 20  1  0
  5 21  1  1
  6 22  1  0
  6 23  1  0
  7 24  1  0
  7 25  1  0
 10 26  1  0
 11 27  1  0
 11 28  1  0
 12 29  1  0
 12 30  1  0
 13 31  1  0
M  END
$$$$

     RDKit          3D

 31 30  0  0  0  0  0  0  0  0999 V2000
   -3.5447   -1.1355   -1.7691 C   0  0  0  0  0  0  0  0  0  0  0  0
   -2.5282   -1.2540   -0.8277 O   0  0  0  0  0  0  0  0  0  0  0  0
   -2.6052   -0.1900    0.0664 C   0  0  1  0  0  0  0  0  0  0  0  0
   -2.7474   -0.6930    1.4859 C   0  0  0  0  0  0  0  0  0  0  0  0
   -1.3416    0.6114   -0.0744 C   0  0  1  0  0  0  0  0  0  0  0  0
   -1.3642    1.7464    0.8427 N   0  0  0  0  0  0  0  0  0  0  0  0
   -0.1245   -0.2450    0.1778 C   0  0  0  0  0  0  0  0  0  0  0  0
    1.0942    0.6081    0.0229 C   0  0  0  0  0  0  0  0  0  0  0  0
    1.0100    1.8161   -0.2683 O   0  0  0  0  0  0  0  0  0  0  0  0
    2.3895    0.0530    0.2065 N   0  0  0  0  0  0  0  0  0  0  0  0
    3.5947    0.8830    0.0565 C   0  0  0  0  0  0  0  0  0  0  0  0
    4.8305    0.0510    0.3038 C   0  0  0  0  0  0  0  0  0  0  0  0
    4.8603   -0.9804   -0.6165 O   0  0  0  0  0  0  0  0  0  0  0  0
   -4.5321   -1.1510   -1.2587 H   0  0  0  0  0  0  0  0  0  0  0  0
   -3.5242   -1.9324   -2.5130 H   0  0  0  0  0  0  0  0  0  0  0  0
   -3.4551   -0.1581   -2.2673 H   0  0  0  0  0  0  0  0  0  0  0  0
   -3.4543    0.4725   -0.2044 H   0  0  0  0  0  0  0  0  0  0  0  0
   -2.0505   -0.1942    2.1822 H   0  0  0  0  0  0  0  0  0  0  0  0
   -3.8039   -0.6297    1.8243 H   0  0  0  0  0  0  0  0  0  0  0  0
   -2.4821   -1.7879    1.5128 H   0  0  0  0  0  0  0  0  0  0  0  0
   -1.2790    1.0091   -1.0996 H   0  0  0  0  0  0  0  0  0  0  0  0
   -1.3956    2.6586    0.3126 H   0  0  0  0  0  0  0  0  0  0  0  0
   -2.1988    1.7143    1.4752 H   0  0  0  0  0  0  0  0  0  0  0  0
   -0.1154   -0.6543    1.1983 H   0  0  0  0  0  0  0  0  0  0  0  0
   -0.1372   -1.0685   -0.5682 H   0  0  0  0  0  0  0  0  0  0  0  0
    2.4870   -0.9568    0.4510 H   0  0  0  0  0  0  0  0  0  0  0  0
    3.5078    1.7135    0.7939 H   0  0  0  0  0  0  0  0  0  0  0  0
    3.6448    1.2605   -0.9927 H   0  0  0  0  0  0  0  0  0  0  0  0
    5.7221    0.6825    0.3144 H   0  0  0  0  0  0  0  0  0  0  0  0
    4.7553   -0.3975    1.3325 H   0  0  0  0  0  0  0  0  0  0  0  0
    4.7877   -1.8518   -0.1786 H   0  0  0  0  0  0  0  0  0  0  0  0
  1  2  1  0
  2  3  1  0
  3  4  1  0
  3  5  1  0
  5  6  1  0
  5  7  1  0
  7  8  1  0
  8  9  2  0
  8 10  1  0
 10 11  1  0
 11 12  1  0
 12 13  1  0
  1 14  1  0
  1 15  1  0
  1 16  1  0
  3 17  1  6
  4 18  1  0
  4 19  1  0
  4 20  1  0
  5 21  1  6
  6 22  1  0
  6 23  1  0
  7 24  1  0
  7 25  1  0
 10 26  1  0
 11 27  1  0
 11 28  1  0
 12 29  1  0
 12 30  1  0
 13 31  1  0
M  END
$$$$

     RDKit          3D

 31 30  0  0  0  0  0  0  0  0999 V2000
   -3.6061   -0.4554   -0.9572 C   0  0  0  0  0  0  0  0  0  0  0  0
   -3.1447    0.6357   -0.2198 O   0  0  0  0  0  0  0  0  0  0  0  0
   -1.7342    0.6217   -0.1449 C   0  0  1  0  0  0  0  0  0  0  0  0
   -1.2167    1.8344   -0.8684 C   0  0  0  0  0  0  0  0  0  0  0  0
   -1.3677    0.5728    1.2932 C   0  0  1  0  0  0  0  0  0  0  0  0
   -1.9364   -0.6401    1.8611 N   0  0  0  0  0  0  0  0  0  0  0  0
    0.0757    0.7378    1.5974 C   0  0  0  0  0  0  0  0  0  0  0  0
    0.9528   -0.2705    1.0021 C   0  0  0  0  0  0  0  0  0  0  0  0
    0.5093   -1.2073    0.2894 O   0  0  0  0  0  0  0  0  0  0  0  0
    2.3546   -0.1992    1.2299 N   0  0  0  0  0  0  0  0  0  0  0  0
    3.2965   -1.1337    0.6945 C   0  0  0  0  0  0  0  0  0  0  0  0
    3.2840   -1.1714   -0.8211 C   0  0  0  0  0  0  0  0  0  0  0  0
    3.5996    0.0773   -1.3535 O   0  0  0  0  0  0  0  0  0  0  0  0
   -4.7051   -0.3959   -0.9838 H   0  0  0  0  0  0  0  0  0  0  0  0
   -3.1785   -0.4405   -1.9806 H   0  0  0  0  0  0  0  0  0  0  0  0
   -3.2647   -1.3972   -0.4838 H   0  0  0  0  0  0  0  0  0  0  0  0
   -1.3814   -0.2674   -0.7021 H   0  0  0  0  0  0  0  0  0  0  0  0
   -0.2361    1.5833   -1.3435 H   0  0  0  0  0  0  0  0  0  0  0  0
   -1.9167    2.0408   -1.7048 H   0  0  0  0  0  0  0  0  0  0  0  0
   -1.1221    2.6890   -0.1717 H   0  0  0  0  0  0  0  0  0  0  0  0
   -1.9073    1.4162    1.8176 H   0  0  0  0  0  0  0  0  0  0  0  0
   -2.9718   -0.5685    1.7493 H   0  0  0  0  0  0  0  0  0  0  0  0
   -1.6286   -1.4451    1.2713 H   0  0  0  0  0  0  0  0  0  0  0  0
    0.3788    1.7552    1.2425 H   0  0  0  0  0  0  0  0  0  0  0  0
    0.1908    0.7799    2.7083 H   0  0  0  0  0  0  0  0  0  0  0  0
    2.6998    0.5852    1.8235 H   0  0  0  0  0  0  0  0  0  0  0  0
    3.1649   -2.1530    1.1219 H   0  0  0  0  0  0  0  0  0  0  0  0
    4.3218   -0.8267    0.9817 H   0  0  0  0  0  0  0  0  0  0  0  0
    4.0868   -1.8629   -1.1488 H   0  0  0  0  0  0  0  0  0  0  0  0
    2.3045   -1.4593   -1.2327 H   0  0  0  0  0  0  0  0  0  0  0  0
    4.0979    0.5650   -0.6733 H   0  0  0  0  0  0  0  0  0  0  0  0
  1  2  1  0
  2  3  1  0
  3  4  1  0
  3  5  1  0
  5  6  1  0
  5  7  1  0
  7  8  1  0
  8  9  2  0
  8 10  1  0
 10 11  1  0
 11 12  1  0
 12 13  1  0
  1 14  1  0
  1 15  1  0
  1 16  1  0
  3 17  1  6
  4 18  1  0
  4 19  1  0
  4 20  1  0
  5 21  1  1
  6 22  1  0
  6 23  1  0
  7 24  1  0
  7 25  1  0
 10 26  1  0
 11 27  1  0
 11 28  1  0
 12 29  1  0
 12 30  1  0
 13 31  1  0
M  END
$$$$

     RDKit          3D

 31 30  0  0  0  0  0  0  0  0999 V2000
   -3.3260   -0.0342   -1.4835 C   0  0  0  0  0  0  0  0  0  0  0  0
   -2.7569   -0.8296   -0.5013 O   0  0  0  0  0  0  0  0  0  0  0  0
   -2.4958   -0.0751    0.6245 C   0  0  1  0  0  0  0  0  0  0  0  0
   -3.3169   -0.5879    1.7848 C   0  0  0  0  0  0  0  0  0  0  0  0
   -1.0074   -0.0823    0.9485 C   0  0  1  0  0  0  0  0  0  0  0  0
   -0.5104   -1.3997    1.1967 N   0  0  0  0  0  0  0  0  0  0  0  0
   -0.3016    0.4532   -0.2847 C   0  0  0  0  0  0  0  0  0  0  0  0
    1.1861    0.4857   -0.0632 C   0  0  0  0  0  0  0  0  0  0  0  0
    1.6873    0.1030    1.0246 O   0  0  0  0  0  0  0  0  0  0  0  0
    2.0798    0.9466   -1.0657 N   0  0  0  0  0  0  0  0  0  0  0  0
    3.4993    1.0048   -0.9240 C   0  0  0  0  0  0  0  0  0  0  0  0
    4.1263   -0.3462   -0.6550 C   0  0  0  0  0  0  0  0  0  0  0  0
    5.5091   -0.2208   -0.5271 O   0  0  0  0  0  0  0  0  0  0  0  0
   -4.2799    0.3803   -1.0594 H   0  0  0  0  0  0  0  0  0  0  0  0
   -3.5632   -0.6604   -2.3811 H   0  0  0  0  0  0  0  0  0  0  0  0
   -2.6713    0.7777   -1.8162 H   0  0  0  0  0  0  0  0  0  0  0  0
   -2.8104    0.9614    0.4394 H   0  0  0  0  0  0  0  0  0  0  0  0
   -2.8196   -0.3491    2.7252 H   0  0  0  0  0  0  0  0  0  0  0  0
   -3.4779   -1.6934    1.6451 H   0  0  0  0  0  0  0  0  0  0  0  0
   -4.3270   -0.1361    1.6969 H   0  0  0  0  0  0  0  0  0  0  0  0
   -0.8575    0.5577    1.8217 H   0  0  0  0  0  0  0  0  0  0  0  0
   -1.0928   -1.9738    1.8153 H   0  0  0  0  0  0  0  0  0  0  0  0
   -0.1010   -1.8778    0.3897 H   0  0  0  0  0  0  0  0  0  0  0  0
   -0.6008    1.4949   -0.5229 H   0  0  0  0  0  0  0  0  0  0  0  0
   -0.5564   -0.1566   -1.1759 H   0  0  0  0  0  0  0  0  0  0  0  0
    1.5985    1.2574   -1.9643 H   0  0  0  0  0  0  0  0  0  0  0  0
    3.9300    1.4033   -1.8658 H   0  0  0  0  0  0  0  0  0  0  0  0
    3.8432    1.6862   -0.1149 H   0  0  0  0  0  0  0  0  0  0  0  0
    3.7375   -0.8299    0.2408 H   0  0  0  0  0  0  0  0  0  0  0  0
    3.9690   -1.0001   -1.5582 H   0  0  0  0  0  0  0  0  0  0  0  0
    5.7067    0.7409   -0.3951 H   0  0  0  0  0  0  0  0  0  0  0  0
  1  2  1  0
  2  3  1  0
  3  4  1  0
  3  5  1  0
  5  6  1  0
  5  7  1  0
  7  8  1  0
  8  9  2  0
  8 10  1  0
 10 11  1  0
 11 12  1  0
 12 13  1  0
  1 14  1  0
  1 15  1  0
  1 16  1  0
  3 17  1  6
  4 18  1  0
  4 19  1  0
  4 20  1  0
  5 21  1  1
  6 22  1  0
  6 23  1  0
  7 24  1  0
  7 25  1  0
 10 26  1  0
 11 27  1  0
 11 28  1  0
 12 29  1  0
 12 30  1  0
 13 31  1  0
M  END
$$$$

     RDKit          3D

 31 30  0  0  0  0  0  0  0  0999 V2000
   -3.4106   -1.6281    0.4018 C   0  0  0  0  0  0  0  0  0  0  0  0
   -2.9993   -0.5413    1.1414 O   0  0  0  0  0  0  0  0  0  0  0  0
   -1.9340    0.1550    0.5238 C   0  0  1  0  0  0  0  0  0  0  0  0
   -2.4511    1.5367    0.1067 C   0  0  0  0  0  0  0  0  0  0  0  0
   -0.8083    0.3175    1.4812 C   0  0  1  0  0  0  0  0  0  0  0  0
   -0.3350   -1.0104    1.9076 N   0  0  0  0  0  0  0  0  0  0  0  0
    0.3677    1.0554    0.9609 C   0  0  0  0  0  0  0  0  0  0  0  0
    1.0043    0.4206   -0.2151 C   0  0  0  0  0  0  0  0  0  0  0  0
    0.5465   -0.6584   -0.6483 O   0  0  0  0  0  0  0  0  0  0  0  0
    2.1149    0.9924   -0.8680 N   0  0  0  0  0  0  0  0  0  0  0  0
    2.8218    0.4790   -1.9994 C   0  0  0  0  0  0  0  0  0  0  0  0
    3.4739   -0.8450   -1.7178 C   0  0  0  0  0  0  0  0  0  0  0  0
    2.6292   -1.8652   -1.3591 O   0  0  0  0  0  0  0  0  0  0  0  0
   -2.5848   -2.3737    0.2501 H   0  0  0  0  0  0  0  0  0  0  0  0
   -3.8046   -1.3719   -0.5941 H   0  0  0  0  0  0  0  0  0  0  0  0
   -4.1799   -2.1545    0.9887 H   0  0  0  0  0  0  0  0  0  0  0  0
   -1.7285   -0.3828   -0.3990 H   0  0  0  0  0  0  0  0  0  0  0  0
   -2.5077    2.1945    1.0025 H   0  0  0  0  0  0  0  0  0  0  0  0
   -3.3924    1.4396   -0.4376 H   0  0  0  0  0  0  0  0  0  0  0  0
   -1.6677    1.9752   -0.5712 H   0  0  0  0  0  0  0  0  0  0  0  0
   -1.2017    0.7735    2.4133 H   0  0  0  0  0  0  0  0  0  0  0  0
   -1.0905   -1.5447    2.3889 H   0  0  0  0  0  0  0  0  0  0  0  0
    0.4986   -0.8523    2.5051 H   0  0  0  0  0  0  0  0  0  0  0  0
    0.0262    2.1052    0.7185 H   0  0  0  0  0  0  0  0  0  0  0  0
    1.1663    1.1951    1.7166 H   0  0  0  0  0  0  0  0  0  0  0  0
    2.4733    1.9183   -0.4736 H   0  0  0  0  0  0  0  0  0  0  0  0
    3.6410    1.1853   -2.3281 H   0  0  0  0  0  0  0  0  0  0  0  0
    2.1459    0.3256   -2.8773 H   0  0  0  0  0  0  0  0  0  0  0  0
    4.2479   -0.7553   -0.9087 H   0  0  0  0  0  0  0  0  0  0  0  0
    4.0727   -1.1961   -2.6102 H   0  0  0  0  0  0  0  0  0  0  0  0
    2.8659   -2.2785   -0.4994 H   0  0  0  0  0  0  0  0  0  0  0  0
  1  2  1  0
  2  3  1  0
  3  4  1  0
  3  5  1  0
  5  6  1  0
  5  7  1  0
  7  8  1  0
  8  9  2  0
  8 10  1  0
 10 11  1  0
 11 12  1  0
 12 13  1  0
  1 14  1  0
  1 15  1  0
  1 16  1  0
  3 17  1  6
  4 18  1  0
  4 19  1  0
  4 20  1  0
  5 21  1  1
  6 22  1  0
  6 23  1  0
  7 24  1  0
  7 25  1  0
 10 26  1  0
 11 27  1  0
 11 28  1  0
 12 29  1  0
 12 30  1  0
 13 31  1  0
M  END
$$$$

     RDKit          3D

 31 30  0  0  0  0  0  0  0  0999 V2000
   -1.7274    1.1209    1.9089 C   0  0  0  0  0  0  0  0  0  0  0  0
   -2.2917    0.7241    0.7071 O   0  0  0  0  0  0  0  0  0  0  0  0
   -1.8632   -0.5359    0.2969 C   0  0  1  0  0  0  0  0  0  0  0  0
   -3.1287   -1.4114    0.3847 C   0  0  0  0  0  0  0  0  0  0  0  0
   -1.4325   -0.5811   -1.1250 C   0  0  1  0  0  0  0  0  0  0  0  0
   -2.5636   -0.1971   -1.9487 N   0  0  0  0  0  0  0  0  0  0  0  0
   -0.2602    0.2363   -1.4917 C   0  0  0  0  0  0  0  0  0  0  0  0
    0.9848   -0.1129   -0.7680 C   0  0  0  0  0  0  0  0  0  0  0  0
    0.9723   -1.0389    0.0598 O   0  0  0  0  0  0  0  0  0  0  0  0
    2.2061    0.5769   -0.9856 N   0  0  0  0  0  0  0  0  0  0  0  0
    3.4334    0.2941   -0.3275 C   0  0  0  0  0  0  0  0  0  0  0  0
    3.3746    0.4401    1.1684 C   0  0  0  0  0  0  0  0  0  0  0  0
    4.6651    0.1246    1.6517 O   0  0  0  0  0  0  0  0  0  0  0  0
   -2.1339    2.1270    2.1378 H   0  0  0  0  0  0  0  0  0  0  0  0
   -2.1199    0.4541    2.7241 H   0  0  0  0  0  0  0  0  0  0  0  0
   -0.6399    1.0593    1.9397 H   0  0  0  0  0  0  0  0  0  0  0  0
   -1.1527   -0.9923    1.0002 H   0  0  0  0  0  0  0  0  0  0  0  0
   -2.9193   -2.4259   -0.0125 H   0  0  0  0  0  0  0  0  0  0  0  0
   -3.5594   -1.4009    1.3871 H   0  0  0  0  0  0  0  0  0  0  0  0
   -3.8579   -0.9336   -0.3028 H   0  0  0  0  0  0  0  0  0  0  0  0
   -1.2139   -1.6434   -1.3787 H   0  0  0  0  0  0  0  0  0  0  0  0
   -3.0827    0.5593   -1.4568 H   0  0  0  0  0  0  0  0  0  0  0  0
   -2.2208    0.0981   -2.8962 H   0  0  0  0  0  0  0  0  0  0  0  0
   -0.4108    1.3293   -1.4233 H   0  0  0  0  0  0  0  0  0  0  0  0
   -0.0475    0.0407   -2.5815 H   0  0  0  0  0  0  0  0  0  0  0  0
    2.1703    1.3443   -1.6869 H   0  0  0  0  0  0  0  0  0  0  0  0
    3.7414   -0.7538   -0.5384 H   0  0  0  0  0  0  0  0  0  0  0  0
    4.2219    0.9698   -0.6983 H   0  0  0  0  0  0  0  0  0  0  0  0
    2.6909   -0.2936    1.6370 H   0  0  0  0  0  0  0  0  0  0  0  0
    3.1889    1.4844    1.4954 H   0  0  0  0  0  0  0  0  0  0  0  0
    4.9762   -0.6625    1.1230 H   0  0  0  0  0  0  0  0  0  0  0  0
  1  2  1  0
  2  3  1  0
  3  4  1  0
  3  5  1  0
  5  6  1  0
  5  7  1  0
  7  8  1  0
  8  9  2  0
  8 10  1  0
 10 11  1  0
 11 12  1  0
 12 13  1  0
  1 14  1  0
  1 15  1  0
  1 16  1  0
  3 17  1  1
  4 18  1  0
  4 19  1  0
  4 20  1  0
  5 21  1  6
  6 22  1  0
  6 23  1  0
  7 24  1  0
  7 25  1  0
 10 26  1  0
 11 27  1  0
 11 28  1  0
 12 29  1  0
 12 30  1  0
 13 31  1  0
M  END
$$$$

     RDKit          3D

 31 30  0  0  0  0  0  0  0  0999 V2000
   -2.6909    0.0023   -1.5562 C   0  0  0  0  0  0  0  0  0  0  0  0
   -2.8077   -0.0484   -0.1792 O   0  0  0  0  0  0  0  0  0  0  0  0
   -1.8588    0.7052    0.4857 C   0  0  1  0  0  0  0  0  0  0  0  0
   -2.4643    1.8275    1.2953 C   0  0  0  0  0  0  0  0  0  0  0  0
   -1.0249   -0.1145    1.4301 C   0  0  1  0  0  0  0  0  0  0  0  0
   -1.8609   -0.7457    2.4448 N   0  0  0  0  0  0  0  0  0  0  0  0
   -0.1048   -1.0751    0.7754 C   0  0  0  0  0  0  0  0  0  0  0  0
    0.9034   -0.4372   -0.0947 C   0  0  0  0  0  0  0  0  0  0  0  0
    0.9770    0.8070   -0.1324 O   0  0  0  0  0  0  0  0  0  0  0  0
    1.7860   -1.2159   -0.8853 N   0  0  0  0  0  0  0  0  0  0  0  0
    2.8105   -0.7354   -1.7586 C   0  0  0  0  0  0  0  0  0  0  0  0
    3.8658    0.0076   -1.0102 C   0  0  0  0  0  0  0  0  0  0  0  0
    3.4355    1.1205   -0.3259 O   0  0  0  0  0  0  0  0  0  0  0  0
   -3.4818   -0.6229   -2.0125 H   0  0  0  0  0  0  0  0  0  0  0  0
   -1.7219   -0.4668   -1.8264 H   0  0  0  0  0  0  0  0  0  0  0  0
   -2.6814    1.0255   -1.9683 H   0  0  0  0  0  0  0  0  0  0  0  0
   -1.2257    1.1731   -0.2788 H   0  0  0  0  0  0  0  0  0  0  0  0
   -3.4629    1.5391    1.7224 H   0  0  0  0  0  0  0  0  0  0  0  0
   -1.7709    2.2146    2.0516 H   0  0  0  0  0  0  0  0  0  0  0  0
   -2.6796    2.6551    0.5880 H   0  0  0  0  0  0  0  0  0  0  0  0
   -0.3843    0.6079    2.0140 H   0  0  0  0  0  0  0  0  0  0  0  0
   -1.2411   -1.1629    3.1791 H   0  0  0  0  0  0  0  0  0  0  0  0
   -2.5079   -1.4317    2.0207 H   0  0  0  0  0  0  0  0  0  0  0  0
   -0.6813   -1.7705    0.1051 H   0  0  0  0  0  0  0  0  0  0  0  0
    0.3795   -1.7520    1.5368 H   0  0  0  0  0  0  0  0  0  0  0  0
    1.6530   -2.2660   -0.8032 H   0  0  0  0  0  0  0  0  0  0  0  0
    3.2834   -1.6051   -2.2763 H   0  0  0  0  0  0  0  0  0  0  0  0
    2.3453   -0.0604   -2.5389 H   0  0  0  0  0  0  0  0  0  0  0  0
    4.6750    0.3453   -1.7021 H   0  0  0  0  0  0  0  0  0  0  0  0
    4.3084   -0.6809   -0.2463 H   0  0  0  0  0  0  0  0  0  0  0  0
    4.2282    1.6356   -0.0537 H   0  0  0  0  0  0  0  0  0  0  0  0
  1  2  1  0
  2  3  1  0
  3  4  1  0
  3  5  1  0
  5  6  1  0
  5  7  1  0
  7  8  1  0
  8  9  2  0
  8 10  1  0
 10 11  1  0
 11 12  1  0
 12 13  1  0
  1 14  1  0
  1 15  1  0
  1 16  1  0
  3 17  1  6
  4 18  1  0
  4 19  1  0
  4 20  1  0
  5 21  1  1
  6 22  1  0
  6 23  1  0
  7 24  1  0
  7 25  1  0
 10 26  1  0
 11 27  1  0
 11 28  1  0
 12 29  1  0
 12 30  1  0
 13 31  1  0
M  END
$$$$

     RDKit          3D

 31 30  0  0  0  0  0  0  0  0999 V2000
   -3.1696    0.3830   -2.7072 C   0  0  0  0  0  0  0  0  0  0  0  0
   -2.5181   -0.3038   -1.6979 O   0  0  0  0  0  0  0  0  0  0  0  0
   -2.3919    0.3904   -0.5251 C   0  0  1  0  0  0  0  0  0  0  0  0
   -3.1938   -0.2304    0.6122 C   0  0  0  0  0  0  0  0  0  0  0  0
   -0.9763    0.6692   -0.1240 C   0  0  1  0  0  0  0  0  0  0  0  0
   -0.9839    1.4077    1.1307 N   0  0  0  0  0  0  0  0  0  0  0  0
   -0.1359   -0.5382    0.0705 C   0  0  0  0  0  0  0  0  0  0  0  0
    1.2386   -0.2020    0.4620 C   0  0  0  0  0  0  0  0  0  0  0  0
    1.5300    1.0356    0.5819 O   0  0  0  0  0  0  0  0  0  0  0  0
    2.2593   -1.1302    0.7154 N   0  0  0  0  0  0  0  0  0  0  0  0
    3.5842   -0.7218    1.0955 C   0  0  0  0  0  0  0  0  0  0  0  0
    4.2502    0.1510    0.0517 C   0  0  0  0  0  0  0  0  0  0  0  0
    4.3513   -0.5547   -1.1598 O   0  0  0  0  0  0  0  0  0  0  0  0
   -2.6879    1.3131   -3.0042 H   0  0  0  0  0  0  0  0  0  0  0  0
   -4.1725    0.6793   -2.2771 H   0  0  0  0  0  0  0  0  0  0  0  0
   -3.4176   -0.3033   -3.5420 H   0  0  0  0  0  0  0  0  0  0  0  0
   -2.8769    1.3838   -0.7074 H   0  0  0  0  0  0  0  0  0  0  0  0
   -4.2510    0.0612    0.4860 H   0  0  0  0  0  0  0  0  0  0  0  0
   -2.8622    0.1639    1.5950 H   0  0  0  0  0  0  0  0  0  0  0  0
   -3.0499   -1.3285    0.6574 H   0  0  0  0  0  0  0  0  0  0  0  0
   -0.5203    1.2772   -0.9440 H   0  0  0  0  0  0  0  0  0  0  0  0
   -0.9214    0.7221    1.8951 H   0  0  0  0  0  0  0  0  0  0  0  0
   -1.8450    1.9875    1.1381 H   0  0  0  0  0  0  0  0  0  0  0  0
   -0.1193   -1.2359   -0.7847 H   0  0  0  0  0  0  0  0  0  0  0  0
   -0.5780   -1.1262    0.9273 H   0  0  0  0  0  0  0  0  0  0  0  0
    2.0596   -2.1447    0.6280 H   0  0  0  0  0  0  0  0  0  0  0  0
    3.5422   -0.1526    2.0455 H   0  0  0  0  0  0  0  0  0  0  0  0
    4.2652   -1.5759    1.2767 H   0  0  0  0  0  0  0  0  0  0  0  0
    5.2920    0.3167    0.3953 H   0  0  0  0  0  0  0  0  0  0  0  0
    3.7754    1.1257   -0.0744 H   0  0  0  0  0  0  0  0  0  0  0  0
    4.5235   -1.5193   -0.9402 H   0  0  0  0  0  0  0  0  0  0  0  0
  1  2  1  0
  2  3  1  0
  3  4  1  0
  3  5  1  0
  5  6  1  0
  5  7  1  0
  7  8  1  0
  8  9  2  0
  8 10  1  0
 10 11  1  0
 11 12  1  0
 12 13  1  0
  1 14  1  0
  1 15  1  0
  1 16  1  0
  3 17  1  6
  4 18  1  0
  4 19  1  0
  4 20  1  0
  5 21  1  6
  6 22  1  0
  6 23  1  0
  7 24  1  0
  7 25  1  0
 10 26  1  0
 11 27  1  0
 11 28  1  0
 12 29  1  0
 12 30  1  0
 13 31  1  0
M  END
$$$$
