
     RDKit          3D

 30 31  0  0  0  0  0  0  0  0999 V2000
   -2.0598   -1.7394    0.9025 C   0  0  0  0  0  0  0  0  0  0  0  0
   -2.1942   -0.5695    0.0089 C   0  0  2  0  0  0  0  0  0  0  0  0
   -1.1141    0.4231   -0.0860 C   0  0  0  0  0  0  0  0  0  0  0  0
    0.1183   -0.1878   -0.5611 N   0  0  0  0  0  0  0  0  0  0  0  0
    0.9565    0.9219   -1.0757 C   0  0  0  0  0  0  0  0  0  0  0  0
    2.3515    0.4236   -1.0342 C   0  0  1  0  0  0  0  0  0  0  0  0
    3.1006    0.5877    0.2456 C   0  0  2  0  0  0  0  0  0  0  0  0
    4.5353    0.4840    0.2305 N   0  0  0  0  0  0  0  0  0  0  0  0
    2.3197   -0.6499   -0.0101 C   0  0  1  0  0  0  0  0  0  0  0  0
    0.9156   -0.6938    0.5513 C   0  0  0  0  0  0  0  0  0  0  0  0
   -3.4595    0.1817    0.3627 C   0  0  0  0  0  0  0  0  0  0  0  0
   -3.6861    1.3609   -0.3792 N   0  0  0  0  0  0  0  0  0  0  0  0
   -4.2470   -0.2122    1.2505 O   0  0  0  0  0  0  0  0  0  0  0  0
   -1.8014   -1.5071    1.9345 H   0  0  0  0  0  0  0  0  0  0  0  0
   -1.4295   -2.5670    0.4593 H   0  0  0  0  0  0  0  0  0  0  0  0
   -3.0922   -2.2251    0.9293 H   0  0  0  0  0  0  0  0  0  0  0  0
   -2.3905   -0.9507   -1.0304 H   0  0  0  0  0  0  0  0  0  0  0  0
   -0.9334    1.0031    0.8568 H   0  0  0  0  0  0  0  0  0  0  0  0
   -1.3942    1.1858   -0.8564 H   0  0  0  0  0  0  0  0  0  0  0  0
    0.7756    1.8563   -0.5423 H   0  0  0  0  0  0  0  0  0  0  0  0
    0.6218    1.0442   -2.1253 H   0  0  0  0  0  0  0  0  0  0  0  0
    2.9288    0.3292   -1.9549 H   0  0  0  0  0  0  0  0  0  0  0  0
    2.7034    1.3498    0.9223 H   0  0  0  0  0  0  0  0  0  0  0  0
    4.8393    0.0289   -0.6505 H   0  0  0  0  0  0  0  0  0  0  0  0
    4.8391   -0.0524    1.0556 H   0  0  0  0  0  0  0  0  0  0  0  0
    2.8103   -1.6000   -0.2794 H   0  0  0  0  0  0  0  0  0  0  0  0
    0.8501   -0.0656    1.4356 H   0  0  0  0  0  0  0  0  0  0  0  0
    0.6904   -1.7414    0.7635 H   0  0  0  0  0  0  0  0  0  0  0  0
   -4.0889    1.2747   -1.3378 H   0  0  0  0  0  0  0  0  0  0  0  0
   -3.4657    2.3072    0.0142 H   0  0  0  0  0  0  0  0  0  0  0  0
  1  2  1  0
  2  3  1  0
  3  4  1  0
  4  5  1  0
  5  6  1  0
  6  7  1  0
  7  8  1  0
  7  9  1  0
  9 10  1  0
  2 11  1  0
 11 12  1  0
 11 13  2  0
 10  4  1  0
  9  6  1  0
  1 14  1  0
  1 15  1  0
  1 16  1  0
  2 17  1  6
  3 18  1  0
  3 19  1  0
  5 20  1  0
  5 21  1  0
  6 22  1  6
  7 23  1  1
  8 24  1  0
  8 25  1  0
  9 26  1  6
 10 27  1  0
 10 28  1  0
 12 29  1  0
 12 30  1  0
M  END
$$$$

     RDKit          3D

 30 31  0  0  0  0  0  0  0  0999 V2000
    2.4189   -2.0549    0.8267 C   0  0  0  0  0  0  0  0  0  0  0  0
    1.7676   -0.6911    0.8405 C   0  0  2  0  0  0  0  0  0  0  0  0
    0.8839   -0.6089   -0.3724 C   0  0  0  0  0  0  0  0  0  0  0  0
    0.1861    0.6170   -0.5226 N   0  0  0  0  0  0  0  0  0  0  0  0
   -0.6236    0.5909   -1.7139 C   0  0  0  0  0  0  0  0  0  0  0  0
   -2.0542    0.5945   -1.3189 C   0  0  1  0  0  0  0  0  0  0  0  0
   -2.6311   -0.2717   -0.2898 C   0  0  2  0  0  0  0  0  0  0  0  0
   -4.0935   -0.3605   -0.2888 N   0  0  0  0  0  0  0  0  0  0  0  0
   -2.0759    1.0535    0.0704 C   0  0  1  0  0  0  0  0  0  0  0  0
   -0.6326    1.0180    0.5651 C   0  0  0  0  0  0  0  0  0  0  0  0
    2.8156    0.3279    0.8806 C   0  0  0  0  0  0  0  0  0  0  0  0
    2.5314    1.7195    0.9024 N   0  0  0  0  0  0  0  0  0  0  0  0
    4.0214   -0.0551    0.8964 O   0  0  0  0  0  0  0  0  0  0  0  0
    3.0545   -2.1302   -0.0853 H   0  0  0  0  0  0  0  0  0  0  0  0
    3.0694   -2.2214    1.7061 H   0  0  0  0  0  0  0  0  0  0  0  0
    1.6665   -2.8647    0.7397 H   0  0  0  0  0  0  0  0  0  0  0  0
    1.1272   -0.6798    1.7601 H   0  0  0  0  0  0  0  0  0  0  0  0
    1.5287   -0.7727   -1.2594 H   0  0  0  0  0  0  0  0  0  0  0  0
    0.2017   -1.5036   -0.3261 H   0  0  0  0  0  0  0  0  0  0  0  0
   -0.3363   -0.2368   -2.3840 H   0  0  0  0  0  0  0  0  0  0  0  0
   -0.4145    1.5415   -2.2630 H   0  0  0  0  0  0  0  0  0  0  0  0
   -2.7398    1.0474   -2.0868 H   0  0  0  0  0  0  0  0  0  0  0  0
   -2.1456   -1.1592    0.1246 H   0  0  0  0  0  0  0  0  0  0  0  0
   -4.3912   -0.9661    0.5047 H   0  0  0  0  0  0  0  0  0  0  0  0
   -4.3540   -0.8629   -1.1840 H   0  0  0  0  0  0  0  0  0  0  0  0
   -2.7088    1.9090    0.3239 H   0  0  0  0  0  0  0  0  0  0  0  0
   -0.3834    2.0937    0.7956 H   0  0  0  0  0  0  0  0  0  0  0  0
   -0.5387    0.4562    1.4912 H   0  0  0  0  0  0  0  0  0  0  0  0
    1.8790    2.1106    1.6006 H   0  0  0  0  0  0  0  0  0  0  0  0
    2.9714    2.3600    0.2224 H   0  0  0  0  0  0  0  0  0  0  0  0
  1  2  1  0
  2  3  1  0
  3  4  1  0
  4  5  1  0
  5  6  1  0
  6  7  1  0
  7  8  1  0
  7  9  1  0
  9 10  1  0
  2 11  1  0
 11 12  1  0
 11 13  2  0
 10  4  1  0
  9  6  1  0
  1 14  1  0
  1 15  1  0
  1 16  1  0
  2 17  1  1
  3 18  1  0
  3 19  1  0
  5 20  1  0
  5 21  1  0
  6 22  1  6
  7 23  1  1
  8 24  1  0
  8 25  1  0
  9 26  1  6
 10 27  1  0
 10 28  1  0
 12 29  1  0
 12 30  1  0
M  END
$$$$

     RDKit          3D

 30 31  0  0  0  0  0  0  0  0999 V2000
   -2.6264    1.0876   -0.5820 C   0  0  0  0  0  0  0  0  0  0  0  0
   -1.8882    0.5210    0.6360 C   0  0  2  0  0  0  0  0  0  0  0  0
   -0.8654   -0.4858    0.1634 C   0  0  0  0  0  0  0  0  0  0  0  0
    0.0946    0.1178   -0.7377 N   0  0  0  0  0  0  0  0  0  0  0  0
    0.9446   -0.9339   -1.2618 C   0  0  0  0  0  0  0  0  0  0  0  0
    2.2201   -0.8828   -0.4881 C   0  0  1  0  0  0  0  0  0  0  0  0
    3.2063    0.1445   -0.9876 C   0  0  2  0  0  0  0  0  0  0  0  0
    4.5729   -0.2003   -0.7616 N   0  0  0  0  0  0  0  0  0  0  0  0
    2.3040    0.4591    0.1264 C   0  0  1  0  0  0  0  0  0  0  0  0
    0.9595    1.0631   -0.0863 C   0  0  0  0  0  0  0  0  0  0  0  0
   -2.8545   -0.2208    1.4970 C   0  0  0  0  0  0  0  0  0  0  0  0
   -4.0678    0.3901    1.9420 N   0  0  0  0  0  0  0  0  0  0  0  0
   -2.6119   -1.4141    1.8493 O   0  0  0  0  0  0  0  0  0  0  0  0
   -2.5545    0.3033   -1.3775 H   0  0  0  0  0  0  0  0  0  0  0  0
   -2.1596    2.0209   -0.9063 H   0  0  0  0  0  0  0  0  0  0  0  0
   -3.7030    1.1980   -0.3543 H   0  0  0  0  0  0  0  0  0  0  0  0
   -1.4355    1.3215    1.2152 H   0  0  0  0  0  0  0  0  0  0  0  0
   -1.3614   -1.2946   -0.4027 H   0  0  0  0  0  0  0  0  0  0  0  0
   -0.3918   -0.9597    1.0299 H   0  0  0  0  0  0  0  0  0  0  0  0
    1.1625   -0.6369   -2.3205 H   0  0  0  0  0  0  0  0  0  0  0  0
    0.4609   -1.9118   -1.2297 H   0  0  0  0  0  0  0  0  0  0  0  0
    2.5478   -1.7544    0.0674 H   0  0  0  0  0  0  0  0  0  0  0  0
    3.0058    0.6183   -1.9748 H   0  0  0  0  0  0  0  0  0  0  0  0
    4.6916   -1.2259   -0.5294 H   0  0  0  0  0  0  0  0  0  0  0  0
    5.0521    0.3259   -0.0271 H   0  0  0  0  0  0  0  0  0  0  0  0
    2.7795    0.6317    1.1068 H   0  0  0  0  0  0  0  0  0  0  0  0
    0.5436    1.3434    0.8928 H   0  0  0  0  0  0  0  0  0  0  0  0
    0.9900    1.9955   -0.7116 H   0  0  0  0  0  0  0  0  0  0  0  0
   -4.0154    1.2957    2.4513 H   0  0  0  0  0  0  0  0  0  0  0  0
   -5.0005   -0.0488    1.7614 H   0  0  0  0  0  0  0  0  0  0  0  0
  1  2  1  0
  2  3  1  0
  3  4  1  0
  4  5  1  0
  5  6  1  0
  6  7  1  0
  7  8  1  0
  7  9  1  0
  9 10  1  0
  2 11  1  0
 11 12  1  0
 11 13  2  0
 10  4  1  0
  9  6  1  0
  1 14  1  0
  1 15  1  0
  1 16  1  0
  2 17  1  1
  3 18  1  0
  3 19  1  0
  5 20  1  0
  5 21  1  0
  6 22  1  1
  7 23  1  6
  8 24  1  0
  8 25  1  0
  9 26  1  1
 10 27  1  0
 10 28  1  0
 12 29  1  0
 12 30  1  0
M  END
$$$$

     RDKit          3D

 30 31  0  0  0  0  0  0  0  0999 V2000
    2.5996   -1.1038    0.6169 C   0  0  0  0  0  0  0  0  0  0  0  0
    2.0336    0.1610    0.0176 C   0  0  2  0  0  0  0  0  0  0  0  0
    0.7818   -0.2145   -0.7926 C   0  0  0  0  0  0  0  0  0  0  0  0
   -0.1149   -0.7825    0.1488 N   0  0  0  0  0  0  0  0  0  0  0  0
   -0.6454    0.1714    1.0944 C   0  0  0  0  0  0  0  0  0  0  0  0
   -2.1363    0.0879    1.0007 C   0  0  1  0  0  0  0  0  0  0  0  0
   -2.7348    0.4321   -0.3075 C   0  0  2  0  0  0  0  0  0  0  0  0
   -4.1193    0.8412   -0.2983 N   0  0  0  0  0  0  0  0  0  0  0  0
   -2.4683   -0.9828    0.0176 C   0  0  1  0  0  0  0  0  0  0  0  0
   -1.1405   -1.6225   -0.3024 C   0  0  0  0  0  0  0  0  0  0  0  0
    2.9870    0.9811   -0.7137 C   0  0  0  0  0  0  0  0  0  0  0  0
    3.2967    2.3027   -0.2606 N   0  0  0  0  0  0  0  0  0  0  0  0
    3.5486    0.5521   -1.7420 O   0  0  0  0  0  0  0  0  0  0  0  0
    2.7119   -1.0659    1.7112 H   0  0  0  0  0  0  0  0  0  0  0  0
    1.9457   -2.0020    0.4010 H   0  0  0  0  0  0  0  0  0  0  0  0
    3.5988   -1.2720    0.1398 H   0  0  0  0  0  0  0  0  0  0  0  0
    1.6070    0.7691    0.8806 H   0  0  0  0  0  0  0  0  0  0  0  0
    0.4281    0.6527   -1.3588 H   0  0  0  0  0  0  0  0  0  0  0  0
    1.0453   -1.0144   -1.5355 H   0  0  0  0  0  0  0  0  0  0  0  0
   -0.3583    1.2178    0.7787 H   0  0  0  0  0  0  0  0  0  0  0  0
   -0.2366   -0.0621    2.0924 H   0  0  0  0  0  0  0  0  0  0  0  0
   -2.7291    0.0647    1.9340 H   0  0  0  0  0  0  0  0  0  0  0  0
   -2.1275    0.9324   -1.0848 H   0  0  0  0  0  0  0  0  0  0  0  0
   -4.3324    1.5962    0.3506 H   0  0  0  0  0  0  0  0  0  0  0  0
   -4.7826    0.0573   -0.3545 H   0  0  0  0  0  0  0  0  0  0  0  0
   -3.3040   -1.6741    0.1794 H   0  0  0  0  0  0  0  0  0  0  0  0
   -1.0610   -1.9924   -1.3421 H   0  0  0  0  0  0  0  0  0  0  0  0
   -1.1071   -2.5570    0.3407 H   0  0  0  0  0  0  0  0  0  0  0  0
    2.9787    3.1127   -0.8152 H   0  0  0  0  0  0  0  0  0  0  0  0
    3.8355    2.4135    0.6210 H   0  0  0  0  0  0  0  0  0  0  0  0
  1  2  1  0
  2  3  1  0
  3  4  1  0
  4  5  1  0
  5  6  1  0
  6  7  1  0
  7  8  1  0
  7  9  1  0
  9 10  1  0
  2 11  1  0
 11 12  1  0
 11 13  2  0
 10  4  1  0
  9  6  1  0
  1 14  1  0
  1 15  1  0
  1 16  1  0
  2 17  1  1
  3 18  1  0
  3 19  1  0
  5 20  1  0
  5 21  1  0
  6 22  1  1
  7 23  1  6
  8 24  1  0
  8 25  1  0
  9 26  1  1
 10 27  1  0
 10 28  1  0
 12 29  1  0
 12 30  1  0
M  END
$$$$

     RDKit          3D

 30 31  0  0  0  0  0  0  0  0999 V2000
   -3.4155   -0.5348   -0.7283 C   0  0  0  0  0  0  0  0  0  0  0  0
   -1.9306   -0.1655   -0.7644 C   0  0  2  0  0  0  0  0  0  0  0  0
   -1.2922   -0.8437    0.3944 C   0  0  0  0  0  0  0  0  0  0  0  0
    0.0682   -0.6210    0.4860 N   0  0  0  0  0  0  0  0  0  0  0  0
    0.6684    0.5583    0.8445 C   0  0  0  0  0  0  0  0  0  0  0  0
    1.9849    0.5475    0.0648 C   0  0  1  0  0  0  0  0  0  0  0  0
    3.0466   -0.2757    0.6895 C   0  0  2  0  0  0  0  0  0  0  0  0
    4.3910    0.1072    0.3948 N   0  0  0  0  0  0  0  0  0  0  0  0
    2.2133   -0.8715   -0.3712 C   0  0  1  0  0  0  0  0  0  0  0  0
    0.9393   -1.5747   -0.1003 C   0  0  0  0  0  0  0  0  0  0  0  0
   -1.7466    1.2736   -0.7996 C   0  0  0  0  0  0  0  0  0  0  0  0
   -2.3981    2.0940    0.1734 N   0  0  0  0  0  0  0  0  0  0  0  0
   -1.0272    1.8231   -1.6660 O   0  0  0  0  0  0  0  0  0  0  0  0
   -3.8849    0.0014    0.1232 H   0  0  0  0  0  0  0  0  0  0  0  0
   -3.8483   -0.2622   -1.7086 H   0  0  0  0  0  0  0  0  0  0  0  0
   -3.4582   -1.6324   -0.6094 H   0  0  0  0  0  0  0  0  0  0  0  0
   -1.5250   -0.6306   -1.7125 H   0  0  0  0  0  0  0  0  0  0  0  0
   -1.7837   -0.4324    1.3328 H   0  0  0  0  0  0  0  0  0  0  0  0
   -1.5335   -1.9447    0.4296 H   0  0  0  0  0  0  0  0  0  0  0  0
    0.9683    0.5155    1.9458 H   0  0  0  0  0  0  0  0  0  0  0  0
    0.1562    1.5045    0.7479 H   0  0  0  0  0  0  0  0  0  0  0  0
    2.1892    1.3709   -0.6275 H   0  0  0  0  0  0  0  0  0  0  0  0
    2.9008   -0.6366    1.7363 H   0  0  0  0  0  0  0  0  0  0  0  0
    4.4651    0.6454   -0.4843 H   0  0  0  0  0  0  0  0  0  0  0  0
    4.8306    0.5967    1.1852 H   0  0  0  0  0  0  0  0  0  0  0  0
    2.7349   -1.0482   -1.3531 H   0  0  0  0  0  0  0  0  0  0  0  0
    0.4938   -1.8435   -1.1084 H   0  0  0  0  0  0  0  0  0  0  0  0
    1.0741   -2.5216    0.4197 H   0  0  0  0  0  0  0  0  0  0  0  0
   -2.5005    1.7565    1.1544 H   0  0  0  0  0  0  0  0  0  0  0  0
   -2.7805    3.0443   -0.0886 H   0  0  0  0  0  0  0  0  0  0  0  0
  1  2  1  0
  2  3  1  0
  3  4  1  0
  4  5  1  0
  5  6  1  0
  6  7  1  0
  7  8  1  0
  7  9  1  0
  9 10  1  0
  2 11  1  0
 11 12  1  0
 11 13  2  0
 10  4  1  0
  9  6  1  0
  1 14  1  0
  1 15  1  0
  1 16  1  0
  2 17  1  6
  3 18  1  0
  3 19  1  0
  5 20  1  0
  5 21  1  0
  6 22  1  6
  7 23  1  1
  8 24  1  0
  8 25  1  0
  9 26  1  6
 10 27  1  0
 10 28  1  0
 12 29  1  0
 12 30  1  0
M  END
$$$$

     RDKit          3D

 30 31  0  0  0  0  0  0  0  0999 V2000
   -3.2979    0.5313   -1.3786 C   0  0  0  0  0  0  0  0  0  0  0  0
   -2.0305    0.9477   -0.6021 C   0  0  2  0  0  0  0  0  0  0  0  0
   -0.9176    0.0871   -1.0569 C   0  0  0  0  0  0  0  0  0  0  0  0
    0.3675    0.3005   -0.4817 N   0  0  0  0  0  0  0  0  0  0  0  0
    1.2548   -0.6529   -1.1896 C   0  0  0  0  0  0  0  0  0  0  0  0
    2.4844   -0.7482   -0.3247 C   0  0  1  0  0  0  0  0  0  0  0  0
    3.0296    0.4232    0.3963 C   0  0  2  0  0  0  0  0  0  0  0  0
    4.4112    0.3073    0.8206 N   0  0  0  0  0  0  0  0  0  0  0  0
    2.0184   -0.4284    1.0456 C   0  0  1  0  0  0  0  0  0  0  0  0
    0.5442   -0.1029    0.8770 C   0  0  0  0  0  0  0  0  0  0  0  0
   -2.3539    0.6584    0.8164 C   0  0  0  0  0  0  0  0  0  0  0  0
   -2.7168   -0.6353    1.2732 N   0  0  0  0  0  0  0  0  0  0  0  0
   -2.3243    1.5634    1.7080 O   0  0  0  0  0  0  0  0  0  0  0  0
   -4.1755    1.0717   -0.9929 H   0  0  0  0  0  0  0  0  0  0  0  0
   -3.1393    0.6255   -2.4618 H   0  0  0  0  0  0  0  0  0  0  0  0
   -3.4556   -0.5484   -1.1566 H   0  0  0  0  0  0  0  0  0  0  0  0
   -1.8980    2.0182   -0.7774 H   0  0  0  0  0  0  0  0  0  0  0  0
   -0.7800    0.2340   -2.1727 H   0  0  0  0  0  0  0  0  0  0  0  0
   -1.1608   -0.9934   -0.9572 H   0  0  0  0  0  0  0  0  0  0  0  0
    1.4262   -0.2781   -2.1951 H   0  0  0  0  0  0  0  0  0  0  0  0
    0.7501   -1.6281   -1.1897 H   0  0  0  0  0  0  0  0  0  0  0  0
    3.1017   -1.6546   -0.4940 H   0  0  0  0  0  0  0  0  0  0  0  0
    2.7182    1.4096    0.0011 H   0  0  0  0  0  0  0  0  0  0  0  0
    4.4865   -0.0471    1.8050 H   0  0  0  0  0  0  0  0  0  0  0  0
    4.8615    1.2464    0.7669 H   0  0  0  0  0  0  0  0  0  0  0  0
    2.2984   -1.0179    1.9228 H   0  0  0  0  0  0  0  0  0  0  0  0
    0.0017   -1.0534    1.0528 H   0  0  0  0  0  0  0  0  0  0  0  0
    0.2285    0.6301    1.6294 H   0  0  0  0  0  0  0  0  0  0  0  0
   -3.5171   -1.1365    0.8354 H   0  0  0  0  0  0  0  0  0  0  0  0
   -2.2157   -1.1292    2.0433 H   0  0  0  0  0  0  0  0  0  0  0  0
  1  2  1  0
  2  3  1  0
  3  4  1  0
  4  5  1  0
  5  6  1  0
  6  7  1  0
  7  8  1  0
  7  9  1  0
  9 10  1  0
  2 11  1  0
 11 12  1  0
 11 13  2  0
 10  4  1  0
  9  6  1  0
  1 14  1  0
  1 15  1  0
  1 16  1  0
  2 17  1  1
  3 18  1  0
  3 19  1  0
  5 20  1  0
  5 21  1  0
  6 22  1  1
  7 23  1  6
  8 24  1  0
  8 25  1  0
  9 26  1  1
 10 27  1  0
 10 28  1  0
 12 29  1  0
 12 30  1  0
M  END
$$$$

     RDKit          3D

 30 31  0  0  0  0  0  0  0  0999 V2000
   -2.2830    0.4387   -1.5637 C   0  0  0  0  0  0  0  0  0  0  0  0
   -1.9936    0.1744   -0.0849 C   0  0  2  0  0  0  0  0  0  0  0  0
   -0.8620   -0.8072   -0.0315 C   0  0  0  0  0  0  0  0  0  0  0  0
    0.2985   -0.2945   -0.6743 N   0  0  0  0  0  0  0  0  0  0  0  0
    1.3947   -1.2350   -0.7147 C   0  0  0  0  0  0  0  0  0  0  0  0
    2.3537   -0.7529    0.3361 C   0  0  1  0  0  0  0  0  0  0  0  0
    3.3353    0.3045   -0.0816 C   0  0  2  0  0  0  0  0  0  0  0  0
    4.5594    0.4573    0.6484 N   0  0  0  0  0  0  0  0  0  0  0  0
    2.0564    0.6618    0.5954 C   0  0  1  0  0  0  0  0  0  0  0  0
    0.8111    0.9394   -0.2066 C   0  0  0  0  0  0  0  0  0  0  0  0
   -3.2309   -0.4293    0.5437 C   0  0  0  0  0  0  0  0  0  0  0  0
   -4.4304    0.3143    0.4904 N   0  0  0  0  0  0  0  0  0  0  0  0
   -3.1849   -1.5691    1.0996 O   0  0  0  0  0  0  0  0  0  0  0  0
   -1.8052   -0.3335   -2.2078 H   0  0  0  0  0  0  0  0  0  0  0  0
   -1.9733    1.4571   -1.8350 H   0  0  0  0  0  0  0  0  0  0  0  0
   -3.3880    0.3120   -1.7411 H   0  0  0  0  0  0  0  0  0  0  0  0
   -1.8008    1.0880    0.4795 H   0  0  0  0  0  0  0  0  0  0  0  0
   -0.6699   -1.1317    1.0296 H   0  0  0  0  0  0  0  0  0  0  0  0
   -1.1985   -1.7073   -0.6061 H   0  0  0  0  0  0  0  0  0  0  0  0
    1.8758   -1.1598   -1.7061 H   0  0  0  0  0  0  0  0  0  0  0  0
    1.0384   -2.2701   -0.5241 H   0  0  0  0  0  0  0  0  0  0  0  0
    2.5735   -1.3828    1.2033 H   0  0  0  0  0  0  0  0  0  0  0  0
    3.4253    0.4879   -1.1831 H   0  0  0  0  0  0  0  0  0  0  0  0
    4.7121    1.4083    1.0111 H   0  0  0  0  0  0  0  0  0  0  0  0
    4.7275   -0.3100    1.3105 H   0  0  0  0  0  0  0  0  0  0  0  0
    2.1124    1.0564    1.6366 H   0  0  0  0  0  0  0  0  0  0  0  0
    0.1272    1.5809    0.3648 H   0  0  0  0  0  0  0  0  0  0  0  0
    1.1628    1.5367   -1.1004 H   0  0  0  0  0  0  0  0  0  0  0  0
   -4.4937    1.2272    0.9827 H   0  0  0  0  0  0  0  0  0  0  0  0
   -5.2497   -0.0619   -0.0462 H   0  0  0  0  0  0  0  0  0  0  0  0
  1  2  1  0
  2  3  1  0
  3  4  1  0
  4  5  1  0
  5  6  1  0
  6  7  1  0
  7  8  1  0
  7  9  1  0
  9 10  1  0
  2 11  1  0
 11 12  1  0
 11 13  2  0
 10  4  1  0
  9  6  1  0
  1 14  1  0
  1 15  1  0
  1 16  1  0
  2 17  1  1
  3 18  1  0
  3 19  1  0
  5 20  1  0
  5 21  1  0
  6 22  1  1
  7 23  1  6
  8 24  1  0
  8 25  1  0
  9 26  1  1
 10 27  1  0
 10 28  1  0
 12 29  1  0
 12 30  1  0
M  END
$$$$

     RDKit          3D

 30 31  0  0  0  0  0  0  0  0999 V2000
   -3.2134    0.8653   -0.7964 C   0  0  0  0  0  0  0  0  0  0  0  0
   -2.1064    0.4768    0.1718 C   0  0  2  0  0  0  0  0  0  0  0  0
   -0.9206   -0.0545   -0.5863 C   0  0  0  0  0  0  0  0  0  0  0  0
    0.1282   -0.4266    0.3167 N   0  0  0  0  0  0  0  0  0  0  0  0
    0.7685    0.6360    1.0097 C   0  0  0  0  0  0  0  0  0  0  0  0
    2.0815    0.9512    0.3341 C   0  0  1  0  0  0  0  0  0  0  0  0
    3.2476    0.0604    0.4594 C   0  0  2  0  0  0  0  0  0  0  0  0
    4.5582    0.6116    0.1945 N   0  0  0  0  0  0  0  0  0  0  0  0
    2.2717   -0.1763   -0.6325 C   0  0  1  0  0  0  0  0  0  0  0  0
    1.1642   -1.1756   -0.3627 C   0  0  0  0  0  0  0  0  0  0  0  0
   -2.5949   -0.5057    1.1579 C   0  0  0  0  0  0  0  0  0  0  0  0
   -3.1473   -1.7511    0.7415 N   0  0  0  0  0  0  0  0  0  0  0  0
   -2.5550   -0.3079    2.4110 O   0  0  0  0  0  0  0  0  0  0  0  0
   -3.6022    1.8835   -0.6303 H   0  0  0  0  0  0  0  0  0  0  0  0
   -2.8765    0.7773   -1.8615 H   0  0  0  0  0  0  0  0  0  0  0  0
   -4.0819    0.1472   -0.7164 H   0  0  0  0  0  0  0  0  0  0  0  0
   -1.8201    1.4138    0.7215 H   0  0  0  0  0  0  0  0  0  0  0  0
   -1.2595   -0.9892   -1.0927 H   0  0  0  0  0  0  0  0  0  0  0  0
   -0.6309    0.6993   -1.3436 H   0  0  0  0  0  0  0  0  0  0  0  0
    1.0242    0.2513    2.0412 H   0  0  0  0  0  0  0  0  0  0  0  0
    0.1968    1.5661    1.1208 H   0  0  0  0  0  0  0  0  0  0  0  0
    2.2630    1.9853    0.0338 H   0  0  0  0  0  0  0  0  0  0  0  0
    3.2787   -0.7429    1.2459 H   0  0  0  0  0  0  0  0  0  0  0  0
    5.1300    0.0645   -0.4554 H   0  0  0  0  0  0  0  0  0  0  0  0
    4.5657    1.6318    0.0563 H   0  0  0  0  0  0  0  0  0  0  0  0
    2.4809    0.1438   -1.6638 H   0  0  0  0  0  0  0  0  0  0  0  0
    0.8182   -1.6916   -1.2547 H   0  0  0  0  0  0  0  0  0  0  0  0
    1.5545   -1.9095    0.3731 H   0  0  0  0  0  0  0  0  0  0  0  0
   -4.0210   -2.1168    1.1919 H   0  0  0  0  0  0  0  0  0  0  0  0
   -2.7021   -2.3175   -0.0125 H   0  0  0  0  0  0  0  0  0  0  0  0
  1  2  1  0
  2  3  1  0
  3  4  1  0
  4  5  1  0
  5  6  1  0
  6  7  1  0
  7  8  1  0
  7  9  1  0
  9 10  1  0
  2 11  1  0
 11 12  1  0
 11 13  2  0
 10  4  1  0
  9  6  1  0
  1 14  1  0
  1 15  1  0
  1 16  1  0
  2 17  1  1
  3 18  1  0
  3 19  1  0
  5 20  1  0
  5 21  1  0
  6 22  1  6
  7 23  1  1
  8 24  1  0
  8 25  1  0
  9 26  1  6
 10 27  1  0
 10 28  1  0
 12 29  1  0
 12 30  1  0
M  END
$$$$
