
     RDKit          3D

 25 25  0  0  0  0  0  0  0  0999 V2000
    4.5240    0.2669    0.0826 O   0  0  0  0  0  0  0  0  0  0  0  0
    3.7042    0.0103    0.9952 C   0  0  0  0  0  0  0  0  0  0  0  0
    4.1167   -0.5015    2.1933 O   0  0  0  0  0  0  0  0  0  0  0  0
    2.2816    0.2917    0.7000 C   0  0  0  0  0  0  0  0  0  0  0  0
    1.4210    0.0513    1.5826 O   0  0  0  0  0  0  0  0  0  0  0  0
    1.8695    0.8198   -0.5401 N   0  0  0  0  0  0  0  0  0  0  0  0
    0.5292    1.1043   -0.8915 C   0  0  0  0  0  0  0  0  0  0  0  0
   -0.4440   -0.0133   -0.9411 C   0  0  2  0  0  0  0  0  0  0  0  0
   -1.8226    0.5435   -1.3567 C   0  0  0  0  0  0  0  0  0  0  0  0
   -2.7955   -0.4272   -1.2365 O   0  0  0  0  0  0  0  0  0  0  0  0
   -3.1289   -0.6593    0.0889 C   0  0  0  0  0  0  0  0  0  0  0  0
   -1.9358   -0.2895    0.9309 C   0  0  0  0  0  0  0  0  0  0  0  0
   -0.6776   -0.6684    0.3154 N   0  0  0  0  0  0  0  0  0  0  0  0
    5.0709   -0.7966    2.3426 H   0  0  0  0  0  0  0  0  0  0  0  0
    2.6678    1.0064   -1.2462 H   0  0  0  0  0  0  0  0  0  0  0  0
    0.0636    1.9037   -0.2464 H   0  0  0  0  0  0  0  0  0  0  0  0
    0.5316    1.6031   -1.9122 H   0  0  0  0  0  0  0  0  0  0  0  0
   -0.2081   -0.7567   -1.7586 H   0  0  0  0  0  0  0  0  0  0  0  0
   -1.7886    0.8818   -2.4115 H   0  0  0  0  0  0  0  0  0  0  0  0
   -2.0417    1.3942   -0.6924 H   0  0  0  0  0  0  0  0  0  0  0  0
   -3.9920   -0.0923    0.4446 H   0  0  0  0  0  0  0  0  0  0  0  0
   -3.3200   -1.7482    0.1993 H   0  0  0  0  0  0  0  0  0  0  0  0
   -1.9212    0.7619    1.2459 H   0  0  0  0  0  0  0  0  0  0  0  0
   -2.0040   -0.9069    1.8726 H   0  0  0  0  0  0  0  0  0  0  0  0
   -0.7001   -1.7212    0.2394 H   0  0  0  0  0  0  0  0  0  0  0  0
  1  2  2  0
  2  3  1  0
  2  4  1  0
  4  5  2  0
  4  6  1  0
  6  7  1  0
  7  8  1  0
  8  9  1  0
  9 10  1  0
 10 11  1  0
 11 12  1  0
 12 13  1  0
 13  8  1  0
  3 14  1  0
  6 15  1  0
  7 16  1  0
  7 17  1  0
  8 18  1  6
  9 19  1  0
  9 20  1  0
 11 21  1  0
 11 22  1  0
 12 23  1  0
 12 24  1  0
 13 25  1  0
M  END
$$$$

     RDKit          3D

 25 25  0  0  0  0  0  0  0  0999 V2000
    4.1742    0.5009    1.2164 O   0  0  0  0  0  0  0  0  0  0  0  0
    3.6650    0.4153    0.0829 C   0  0  0  0  0  0  0  0  0  0  0  0
    4.3155    0.8666   -1.0553 O   0  0  0  0  0  0  0  0  0  0  0  0
    2.3180   -0.1886   -0.0597 C   0  0  0  0  0  0  0  0  0  0  0  0
    1.8050   -0.2758   -1.1946 O   0  0  0  0  0  0  0  0  0  0  0  0
    1.6283   -0.6579    1.0792 N   0  0  0  0  0  0  0  0  0  0  0  0
    0.3274   -1.2454    1.0792 C   0  0  0  0  0  0  0  0  0  0  0  0
   -0.7306   -0.3120    0.6334 C   0  0  2  0  0  0  0  0  0  0  0  0
   -2.0713   -1.0427    0.6941 C   0  0  0  0  0  0  0  0  0  0  0  0
   -3.1079   -0.2972    0.2052 O   0  0  0  0  0  0  0  0  0  0  0  0
   -2.8199    1.0039   -0.1000 C   0  0  0  0  0  0  0  0  0  0  0  0
   -1.5776    1.1904   -0.9266 C   0  0  0  0  0  0  0  0  0  0  0  0
   -0.6207    0.1183   -0.7356 N   0  0  0  0  0  0  0  0  0  0  0  0
    5.2901    1.1355   -0.9706 H   0  0  0  0  0  0  0  0  0  0  0  0
    2.1597   -0.5481    2.0202 H   0  0  0  0  0  0  0  0  0  0  0  0
    0.0994   -1.5875    2.1223 H   0  0  0  0  0  0  0  0  0  0  0  0
    0.3765   -2.1263    0.3883 H   0  0  0  0  0  0  0  0  0  0  0  0
   -0.7896    0.5632    1.3219 H   0  0  0  0  0  0  0  0  0  0  0  0
   -2.2137   -1.4016    1.7314 H   0  0  0  0  0  0  0  0  0  0  0  0
   -1.9540   -1.9358    0.0411 H   0  0  0  0  0  0  0  0  0  0  0  0
   -3.6667    1.4112   -0.6927 H   0  0  0  0  0  0  0  0  0  0  0  0
   -2.7909    1.6358    0.8354 H   0  0  0  0  0  0  0  0  0  0  0  0
   -1.0802    2.1203   -0.5603 H   0  0  0  0  0  0  0  0  0  0  0  0
   -1.7799    1.3349   -2.0038 H   0  0  0  0  0  0  0  0  0  0  0  0
   -0.9562   -0.6775   -1.3419 H   0  0  0  0  0  0  0  0  0  0  0  0
  1  2  2  0
  2  3  1  0
  2  4  1  0
  4  5  2  0
  4  6  1  0
  6  7  1  0
  7  8  1  0
  8  9  1  0
  9 10  1  0
 10 11  1  0
 11 12  1  0
 12 13  1  0
 13  8  1  0
  3 14  1  0
  6 15  1  0
  7 16  1  0
  7 17  1  0
  8 18  1  1
  9 19  1  0
  9 20  1  0
 11 21  1  0
 11 22  1  0
 12 23  1  0
 12 24  1  0
 13 25  1  0
M  END
$$$$

     RDKit          3D

 25 25  0  0  0  0  0  0  0  0999 V2000
    3.7284   -0.2712    1.8904 O   0  0  0  0  0  0  0  0  0  0  0  0
    3.9341    0.4578    0.8875 C   0  0  0  0  0  0  0  0  0  0  0  0
    5.1493    1.0751    0.7617 O   0  0  0  0  0  0  0  0  0  0  0  0
    2.8506    0.5957   -0.0821 C   0  0  0  0  0  0  0  0  0  0  0  0
    3.0201    1.3256   -1.1115 O   0  0  0  0  0  0  0  0  0  0  0  0
    1.6060   -0.0410    0.0535 N   0  0  0  0  0  0  0  0  0  0  0  0
    0.5279    0.0977   -0.9136 C   0  0  0  0  0  0  0  0  0  0  0  0
   -0.6881   -0.7157   -0.4804 C   0  0  2  0  0  0  0  0  0  0  0  0
   -1.7468   -0.5246   -1.5168 C   0  0  0  0  0  0  0  0  0  0  0  0
   -3.0255   -0.7786   -1.0885 O   0  0  0  0  0  0  0  0  0  0  0  0
   -3.2839    0.0931   -0.0078 C   0  0  0  0  0  0  0  0  0  0  0  0
   -2.4422   -0.4401    1.1484 C   0  0  0  0  0  0  0  0  0  0  0  0
   -1.0690   -0.2195    0.8246 N   0  0  0  0  0  0  0  0  0  0  0  0
    5.9906    0.8196    1.2818 H   0  0  0  0  0  0  0  0  0  0  0  0
    1.4394   -0.6389    0.8774 H   0  0  0  0  0  0  0  0  0  0  0  0
    0.2881    1.1790   -0.9520 H   0  0  0  0  0  0  0  0  0  0  0  0
    0.8626   -0.1873   -1.9376 H   0  0  0  0  0  0  0  0  0  0  0  0
   -0.4228   -1.7782   -0.3572 H   0  0  0  0  0  0  0  0  0  0  0  0
   -1.6791    0.5346   -1.8768 H   0  0  0  0  0  0  0  0  0  0  0  0
   -1.5120   -1.2384   -2.3596 H   0  0  0  0  0  0  0  0  0  0  0  0
   -4.3557    0.0824    0.2163 H   0  0  0  0  0  0  0  0  0  0  0  0
   -2.9726    1.1208   -0.2378 H   0  0  0  0  0  0  0  0  0  0  0  0
   -2.6821    0.1666    2.0467 H   0  0  0  0  0  0  0  0  0  0  0  0
   -2.6523   -1.5128    1.2682 H   0  0  0  0  0  0  0  0  0  0  0  0
   -0.8650    0.7981    0.8602 H   0  0  0  0  0  0  0  0  0  0  0  0
  1  2  2  0
  2  3  1  0
  2  4  1  0
  4  5  2  0
  4  6  1  0
  6  7  1  0
  7  8  1  0
  8  9  1  0
  9 10  1  0
 10 11  1  0
 11 12  1  0
 12 13  1  0
 13  8  1  0
  3 14  1  0
  6 15  1  0
  7 16  1  0
  7 17  1  0
  8 18  1  1
  9 19  1  0
  9 20  1  0
 11 21  1  0
 11 22  1  0
 12 23  1  0
 12 24  1  0
 13 25  1  0
M  END
$$$$

     RDKit          3D

 25 25  0  0  0  0  0  0  0  0999 V2000
    4.2931   -0.1370   -1.0252 O   0  0  0  0  0  0  0  0  0  0  0  0
    3.7439    0.6544   -0.2244 C   0  0  0  0  0  0  0  0  0  0  0  0
    4.3570    1.8526    0.0792 O   0  0  0  0  0  0  0  0  0  0  0  0
    2.4784    0.2902    0.3622 C   0  0  0  0  0  0  0  0  0  0  0  0
    1.9403    1.1137    1.1744 O   0  0  0  0  0  0  0  0  0  0  0  0
    1.8028   -0.9238    0.0889 N   0  0  0  0  0  0  0  0  0  0  0  0
    0.5556   -1.2279    0.6966 C   0  0  0  0  0  0  0  0  0  0  0  0
   -0.5537   -0.2611    0.3948 C   0  0  2  0  0  0  0  0  0  0  0  0
   -1.8259   -0.7248    1.1176 C   0  0  0  0  0  0  0  0  0  0  0  0
   -2.7150    0.3318    1.0323 O   0  0  0  0  0  0  0  0  0  0  0  0
   -3.0847    0.6279   -0.2693 C   0  0  0  0  0  0  0  0  0  0  0  0
   -1.9144    0.7492   -1.2073 C   0  0  0  0  0  0  0  0  0  0  0  0
   -0.9052   -0.2389   -1.0121 N   0  0  0  0  0  0  0  0  0  0  0  0
    5.3573    1.9067   -0.0850 H   0  0  0  0  0  0  0  0  0  0  0  0
    2.2422   -1.5948   -0.5720 H   0  0  0  0  0  0  0  0  0  0  0  0
    0.2236   -2.2743    0.5129 H   0  0  0  0  0  0  0  0  0  0  0  0
    0.6974   -1.1823    1.8177 H   0  0  0  0  0  0  0  0  0  0  0  0
   -0.2989    0.7728    0.6871 H   0  0  0  0  0  0  0  0  0  0  0  0
   -1.6308   -0.9232    2.1830 H   0  0  0  0  0  0  0  0  0  0  0  0
   -2.2331   -1.5787    0.5594 H   0  0  0  0  0  0  0  0  0  0  0  0
   -3.5942    1.6145   -0.2546 H   0  0  0  0  0  0  0  0  0  0  0  0
   -3.8388   -0.0981   -0.6678 H   0  0  0  0  0  0  0  0  0  0  0  0
   -1.4306    1.7517   -1.1163 H   0  0  0  0  0  0  0  0  0  0  0  0
   -2.3388    0.6802   -2.2485 H   0  0  0  0  0  0  0  0  0  0  0  0
   -1.3274   -1.1808   -1.2534 H   0  0  0  0  0  0  0  0  0  0  0  0
  1  2  2  0
  2  3  1  0
  2  4  1  0
  4  5  2  0
  4  6  1  0
  6  7  1  0
  7  8  1  0
  8  9  1  0
  9 10  1  0
 10 11  1  0
 11 12  1  0
 12 13  1  0
 13  8  1  0
  3 14  1  0
  6 15  1  0
  7 16  1  0
  7 17  1  0
  8 18  1  1
  9 19  1  0
  9 20  1  0
 11 21  1  0
 11 22  1  0
 12 23  1  0
 12 24  1  0
 13 25  1  0
M  END
$$$$

     RDKit          3D

 25 25  0  0  0  0  0  0  0  0999 V2000
    3.7559   -1.9896   -0.2005 O   0  0  0  0  0  0  0  0  0  0  0  0
    3.9711   -0.8535    0.2968 C   0  0  0  0  0  0  0  0  0  0  0  0
    5.2370   -0.5736    0.7314 O   0  0  0  0  0  0  0  0  0  0  0  0
    2.9319    0.1553    0.4218 C   0  0  0  0  0  0  0  0  0  0  0  0
    3.1982    1.2644    0.9218 O   0  0  0  0  0  0  0  0  0  0  0  0
    1.5947   -0.0655   -0.0083 N   0  0  0  0  0  0  0  0  0  0  0  0
    0.5686    0.9716    0.1311 C   0  0  0  0  0  0  0  0  0  0  0  0
   -0.7543    0.4575   -0.4094 C   0  0  2  0  0  0  0  0  0  0  0  0
   -1.8219    1.4922   -0.2816 C   0  0  0  0  0  0  0  0  0  0  0  0
   -3.0335    1.0046    0.1648 O   0  0  0  0  0  0  0  0  0  0  0  0
   -3.3589   -0.2252   -0.3948 C   0  0  0  0  0  0  0  0  0  0  0  0
   -2.3126   -1.2726   -0.1917 C   0  0  0  0  0  0  0  0  0  0  0  0
   -1.0641   -0.7582    0.3190 N   0  0  0  0  0  0  0  0  0  0  0  0
    6.0830   -1.0512    0.4495 H   0  0  0  0  0  0  0  0  0  0  0  0
    1.3843   -1.0018   -0.4267 H   0  0  0  0  0  0  0  0  0  0  0  0
    0.8483    1.8457   -0.4815 H   0  0  0  0  0  0  0  0  0  0  0  0
    0.4991    1.2371    1.1877 H   0  0  0  0  0  0  0  0  0  0  0  0
   -0.6173    0.1843   -1.4794 H   0  0  0  0  0  0  0  0  0  0  0  0
   -1.9081    2.0386   -1.2602 H   0  0  0  0  0  0  0  0  0  0  0  0
   -1.4771    2.2338    0.4975 H   0  0  0  0  0  0  0  0  0  0  0  0
   -3.6585   -0.1244   -1.4784 H   0  0  0  0  0  0  0  0  0  0  0  0
   -4.2896   -0.5733    0.1220 H   0  0  0  0  0  0  0  0  0  0  0  0
   -2.0735   -1.7230   -1.1993 H   0  0  0  0  0  0  0  0  0  0  0  0
   -2.6482   -2.0798    0.4934 H   0  0  0  0  0  0  0  0  0  0  0  0
   -1.0544   -0.5938    1.3303 H   0  0  0  0  0  0  0  0  0  0  0  0
  1  2  2  0
  2  3  1  0
  2  4  1  0
  4  5  2  0
  4  6  1  0
  6  7  1  0
  7  8  1  0
  8  9  1  0
  9 10  1  0
 10 11  1  0
 11 12  1  0
 12 13  1  0
 13  8  1  0
  3 14  1  0
  6 15  1  0
  7 16  1  0
  7 17  1  0
  8 18  1  6
  9 19  1  0
  9 20  1  0
 11 21  1  0
 11 22  1  0
 12 23  1  0
 12 24  1  0
 13 25  1  0
M  END
$$$$

     RDKit          3D

 25 25  0  0  0  0  0  0  0  0999 V2000
    4.0899    0.0042    1.0585 O   0  0  0  0  0  0  0  0  0  0  0  0
    3.7457    0.6095    0.0162 C   0  0  0  0  0  0  0  0  0  0  0  0
    4.5885    1.5135   -0.5729 O   0  0  0  0  0  0  0  0  0  0  0  0
    2.4268    0.3456   -0.5768 C   0  0  0  0  0  0  0  0  0  0  0  0
    2.0729    0.9456   -1.6192 O   0  0  0  0  0  0  0  0  0  0  0  0
    1.5204   -0.5852    0.0021 N   0  0  0  0  0  0  0  0  0  0  0  0
    0.2324   -0.8432   -0.5767 C   0  0  0  0  0  0  0  0  0  0  0  0
   -0.6443    0.3792   -0.6559 C   0  0  2  0  0  0  0  0  0  0  0  0
   -0.8551    0.9035    0.7532 C   0  0  0  0  0  0  0  0  0  0  0  0
   -1.1878   -0.1974    1.5410 O   0  0  0  0  0  0  0  0  0  0  0  0
   -2.4666   -0.6071    1.1929 C   0  0  0  0  0  0  0  0  0  0  0  0
   -2.5784   -1.0007   -0.2598 C   0  0  0  0  0  0  0  0  0  0  0  0
   -1.9494   -0.0467   -1.1400 N   0  0  0  0  0  0  0  0  0  0  0  0
    5.3108    1.9370   -0.0117 H   0  0  0  0  0  0  0  0  0  0  0  0
    1.8596   -1.0672    0.8787 H   0  0  0  0  0  0  0  0  0  0  0  0
    0.2853   -1.2762   -1.6013 H   0  0  0  0  0  0  0  0  0  0  0  0
   -0.2666   -1.6211    0.0551 H   0  0  0  0  0  0  0  0  0  0  0  0
   -0.2414    1.1193   -1.3407 H   0  0  0  0  0  0  0  0  0  0  0  0
    0.0653    1.4077    1.1053 H   0  0  0  0  0  0  0  0  0  0  0  0
   -1.6970    1.6358    0.7457 H   0  0  0  0  0  0  0  0  0  0  0  0
   -3.1653    0.2241    1.3852 H   0  0  0  0  0  0  0  0  0  0  0  0
   -2.6911   -1.5075    1.8134 H   0  0  0  0  0  0  0  0  0  0  0  0
   -3.6598   -1.0094   -0.5136 H   0  0  0  0  0  0  0  0  0  0  0  0
   -2.2196   -2.0455   -0.4266 H   0  0  0  0  0  0  0  0  0  0  0  0
   -2.5750    0.7821   -1.2521 H   0  0  0  0  0  0  0  0  0  0  0  0
  1  2  2  0
  2  3  1  0
  2  4  1  0
  4  5  2  0
  4  6  1  0
  6  7  1  0
  7  8  1  0
  8  9  1  0
  9 10  1  0
 10 11  1  0
 11 12  1  0
 12 13  1  0
 13  8  1  0
  3 14  1  0
  6 15  1  0
  7 16  1  0
  7 17  1  0
  8 18  1  6
  9 19  1  0
  9 20  1  0
 11 21  1  0
 11 22  1  0
 12 23  1  0
 12 24  1  0
 13 25  1  0
M  END
$$$$

     RDKit          3D

 25 25  0  0  0  0  0  0  0  0999 V2000
    3.6618   -0.5340    2.2794 O   0  0  0  0  0  0  0  0  0  0  0  0
    3.9018   -0.3126    1.0660 C   0  0  0  0  0  0  0  0  0  0  0  0
    5.1889   -0.4464    0.6134 O   0  0  0  0  0  0  0  0  0  0  0  0
    2.8309    0.0787    0.1588 C   0  0  0  0  0  0  0  0  0  0  0  0
    3.0685    0.3009   -1.0568 O   0  0  0  0  0  0  0  0  0  0  0  0
    1.4932    0.2254    0.5939 N   0  0  0  0  0  0  0  0  0  0  0  0
    0.4467    0.6098   -0.3018 C   0  0  0  0  0  0  0  0  0  0  0  0
   -0.8958    0.7109    0.3464 C   0  0  2  0  0  0  0  0  0  0  0  0
   -1.3442   -0.5924    0.9538 C   0  0  0  0  0  0  0  0  0  0  0  0
   -2.7324   -0.7007    1.0201 O   0  0  0  0  0  0  0  0  0  0  0  0
   -3.3447   -0.6342   -0.2119 C   0  0  0  0  0  0  0  0  0  0  0  0
   -2.3811   -0.0857   -1.2663 C   0  0  0  0  0  0  0  0  0  0  0  0
   -1.8428    1.1533   -0.6871 N   0  0  0  0  0  0  0  0  0  0  0  0
    6.0070   -0.3577    1.1897 H   0  0  0  0  0  0  0  0  0  0  0  0
    1.2758    0.0466    1.5935 H   0  0  0  0  0  0  0  0  0  0  0  0
    0.4635   -0.0799   -1.1713 H   0  0  0  0  0  0  0  0  0  0  0  0
    0.6921    1.6196   -0.7153 H   0  0  0  0  0  0  0  0  0  0  0  0
   -0.8592    1.5303    1.0850 H   0  0  0  0  0  0  0  0  0  0  0  0
   -0.8701   -1.4709    0.4742 H   0  0  0  0  0  0  0  0  0  0  0  0
   -0.9851   -0.5901    2.0165 H   0  0  0  0  0  0  0  0  0  0  0  0
   -4.1560    0.1468   -0.1397 H   0  0  0  0  0  0  0  0  0  0  0  0
   -3.8275   -1.5579   -0.5361 H   0  0  0  0  0  0  0  0  0  0  0  0
   -1.5590   -0.8302   -1.3898 H   0  0  0  0  0  0  0  0  0  0  0  0
   -2.9043    0.0860   -2.2085 H   0  0  0  0  0  0  0  0  0  0  0  0
   -1.3283    1.6846   -1.4288 H   0  0  0  0  0  0  0  0  0  0  0  0
  1  2  2  0
  2  3  1  0
  2  4  1  0
  4  5  2  0
  4  6  1  0
  6  7  1  0
  7  8  1  0
  8  9  1  0
  9 10  1  0
 10 11  1  0
 11 12  1  0
 12 13  1  0
 13  8  1  0
  3 14  1  0
  6 15  1  0
  7 16  1  0
  7 17  1  0
  8 18  1  1
  9 19  1  0
  9 20  1  0
 11 21  1  0
 11 22  1  0
 12 23  1  0
 12 24  1  0
 13 25  1  0
M  END
$$$$

     RDKit          3D

 25 25  0  0  0  0  0  0  0  0999 V2000
    4.0852   -0.2018   -1.3513 O   0  0  0  0  0  0  0  0  0  0  0  0
    3.9989    0.4881   -0.3159 C   0  0  0  0  0  0  0  0  0  0  0  0
    5.0848    1.2071    0.1463 O   0  0  0  0  0  0  0  0  0  0  0  0
    2.7076    0.5024    0.3823 C   0  0  0  0  0  0  0  0  0  0  0  0
    2.6138    1.2032    1.4374 O   0  0  0  0  0  0  0  0  0  0  0  0
    1.5901   -0.2370   -0.0924 N   0  0  0  0  0  0  0  0  0  0  0  0
    0.3684   -0.1495    0.6743 C   0  0  0  0  0  0  0  0  0  0  0  0
   -0.7514   -0.9503    0.1127 C   0  0  2  0  0  0  0  0  0  0  0  0
   -1.1517   -0.5628   -1.2736 C   0  0  0  0  0  0  0  0  0  0  0  0
   -1.7703    0.6684   -1.3531 O   0  0  0  0  0  0  0  0  0  0  0  0
   -2.7144    0.8646   -0.3517 C   0  0  0  0  0  0  0  0  0  0  0  0
   -3.0635   -0.4361    0.3319 C   0  0  0  0  0  0  0  0  0  0  0  0
   -1.8682   -0.8844    1.0373 N   0  0  0  0  0  0  0  0  0  0  0  0
    5.8225    1.5213   -0.5015 H   0  0  0  0  0  0  0  0  0  0  0  0
    1.7029   -0.7984   -0.9573 H   0  0  0  0  0  0  0  0  0  0  0  0
    0.0634    0.9057    0.7932 H   0  0  0  0  0  0  0  0  0  0  0  0
    0.5955   -0.5303    1.6883 H   0  0  0  0  0  0  0  0  0  0  0  0
   -0.4570   -2.0359    0.0748 H   0  0  0  0  0  0  0  0  0  0  0  0
   -0.2637   -0.5700   -1.9223 H   0  0  0  0  0  0  0  0  0  0  0  0
   -1.8384   -1.3715   -1.6606 H   0  0  0  0  0  0  0  0  0  0  0  0
   -2.2298    1.5105    0.4224 H   0  0  0  0  0  0  0  0  0  0  0  0
   -3.5974    1.4211   -0.7012 H   0  0  0  0  0  0  0  0  0  0  0  0
   -3.4223   -1.2110   -0.3570 H   0  0  0  0  0  0  0  0  0  0  0  0
   -3.8074   -0.1774    1.1295 H   0  0  0  0  0  0  0  0  0  0  0  0
   -1.6978   -0.1759    1.7856 H   0  0  0  0  0  0  0  0  0  0  0  0
  1  2  2  0
  2  3  1  0
  2  4  1  0
  4  5  2  0
  4  6  1  0
  6  7  1  0
  7  8  1  0
  8  9  1  0
  9 10  1  0
 10 11  1  0
 11 12  1  0
 12 13  1  0
 13  8  1  0
  3 14  1  0
  6 15  1  0
  7 16  1  0
  7 17  1  0
  8 18  1  6
  9 19  1  0
  9 20  1  0
 11 21  1  0
 11 22  1  0
 12 23  1  0
 12 24  1  0
 13 25  1  0
M  END
$$$$
