
     RDKit          3D

 29 29  0  0  0  0  0  0  0  0999 V2000
    2.0810   -0.7575   -2.8094 C   0  0  0  0  0  0  0  0  0  0  0  0
    1.3489    0.4627   -2.3342 C   0  0  0  0  0  0  0  0  0  0  0  0
    0.2111    0.1297   -1.6093 O   0  0  0  0  0  0  0  0  0  0  0  0
    0.5862   -0.6066   -0.5262 C   0  0  2  0  0  0  0  0  0  0  0  0
   -0.0472   -1.9618   -0.3458 C   0  0  0  0  0  0  0  0  0  0  0  0
   -0.1279   -1.6317    1.1527 C   0  0  1  0  0  0  0  0  0  0  0  0
    1.0266   -2.1967    1.8295 N   0  0  0  0  0  0  0  0  0  0  0  0
    0.0301   -0.1713    0.8022 C   0  0  2  0  0  0  0  0  0  0  0  0
   -1.1268    0.6320    0.8275 N   0  0  0  0  0  0  0  0  0  0  0  0
   -1.1786    1.8358    1.5824 C   0  0  0  0  0  0  0  0  0  0  0  0
   -0.1632    2.1532    2.2203 O   0  0  0  0  0  0  0  0  0  0  0  0
   -2.3598    2.7163    1.6472 C   0  0  0  0  0  0  0  0  0  0  0  0
   -3.4217    2.2581    0.8988 O   0  0  0  0  0  0  0  0  0  0  0  0
    2.8892   -1.0871   -2.1244 H   0  0  0  0  0  0  0  0  0  0  0  0
    2.6087   -0.5246   -3.7804 H   0  0  0  0  0  0  0  0  0  0  0  0
    1.3349   -1.5793   -2.9944 H   0  0  0  0  0  0  0  0  0  0  0  0
    2.0451    1.0080   -1.6307 H   0  0  0  0  0  0  0  0  0  0  0  0
    1.1441    1.1883   -3.1464 H   0  0  0  0  0  0  0  0  0  0  0  0
    1.6866   -0.7411   -0.5136 H   0  0  0  0  0  0  0  0  0  0  0  0
    0.6087   -2.8332   -0.5593 H   0  0  0  0  0  0  0  0  0  0  0  0
   -1.0159   -2.1247   -0.8185 H   0  0  0  0  0  0  0  0  0  0  0  0
   -1.0964   -1.8228    1.6118 H   0  0  0  0  0  0  0  0  0  0  0  0
    1.5023   -1.5186    2.4458 H   0  0  0  0  0  0  0  0  0  0  0  0
    1.6327   -2.7262    1.1942 H   0  0  0  0  0  0  0  0  0  0  0  0
    0.8443    0.2571    1.4253 H   0  0  0  0  0  0  0  0  0  0  0  0
   -2.0088    0.3921    0.2967 H   0  0  0  0  0  0  0  0  0  0  0  0
   -2.0717    3.7359    1.3085 H   0  0  0  0  0  0  0  0  0  0  0  0
   -2.6934    2.8481    2.7177 H   0  0  0  0  0  0  0  0  0  0  0  0
   -4.2687    2.6656    1.2319 H   0  0  0  0  0  0  0  0  0  0  0  0
  1  2  1  0
  2  3  1  0
  3  4  1  0
  4  5  1  0
  5  6  1  0
  6  7  1  0
  6  8  1  0
  8  9  1  0
  9 10  1  0
 10 11  2  0
 10 12  1  0
 12 13  1  0
  8  4  1  0
  1 14  1  0
  1 15  1  0
  1 16  1  0
  2 17  1  0
  2 18  1  0
  4 19  1  1
  5 20  1  0
  5 21  1  0
  6 22  1  1
  7 23  1  0
  7 24  1  0
  8 25  1  1
  9 26  1  0
 12 27  1  0
 12 28  1  0
 13 29  1  0
M  END
$$$$

     RDKit          3D

 29 29  0  0  0  0  0  0  0  0999 V2000
    3.1858    1.2747   -1.0550 C   0  0  0  0  0  0  0  0  0  0  0  0
    2.3122    1.1564    0.1715 C   0  0  0  0  0  0  0  0  0  0  0  0
    1.5798   -0.0076    0.1064 O   0  0  0  0  0  0  0  0  0  0  0  0
    0.7544   -0.1919    1.1908 C   0  0  2  0  0  0  0  0  0  0  0  0
    0.8001   -1.6154    1.7148 C   0  0  0  0  0  0  0  0  0  0  0  0
   -0.1367   -1.9584    0.5739 C   0  0  1  0  0  0  0  0  0  0  0  0
   -1.1047   -2.9822    0.8588 N   0  0  0  0  0  0  0  0  0  0  0  0
   -0.6529   -0.5381    0.6857 C   0  0  2  0  0  0  0  0  0  0  0  0
   -0.9622    0.0813   -0.5826 N   0  0  0  0  0  0  0  0  0  0  0  0
   -2.1355    0.8247   -0.7505 C   0  0  0  0  0  0  0  0  0  0  0  0
   -2.9203    0.9398    0.2416 O   0  0  0  0  0  0  0  0  0  0  0  0
   -2.4869    1.4829   -2.0597 C   0  0  0  0  0  0  0  0  0  0  0  0
   -3.6893    2.1542   -1.9711 O   0  0  0  0  0  0  0  0  0  0  0  0
    4.1263    0.7045   -0.9395 H   0  0  0  0  0  0  0  0  0  0  0  0
    2.6428    1.0147   -1.9768 H   0  0  0  0  0  0  0  0  0  0  0  0
    3.5001    2.3500   -1.1527 H   0  0  0  0  0  0  0  0  0  0  0  0
    2.9983    1.1188    1.0553 H   0  0  0  0  0  0  0  0  0  0  0  0
    1.6007    2.0040    0.2416 H   0  0  0  0  0  0  0  0  0  0  0  0
    0.7669    0.5878    1.9722 H   0  0  0  0  0  0  0  0  0  0  0  0
    1.7909   -2.0935    1.6702 H   0  0  0  0  0  0  0  0  0  0  0  0
    0.2586   -1.7324    2.6891 H   0  0  0  0  0  0  0  0  0  0  0  0
    0.4448   -2.0659   -0.3545 H   0  0  0  0  0  0  0  0  0  0  0  0
   -0.6657   -3.8986    0.5716 H   0  0  0  0  0  0  0  0  0  0  0  0
   -1.9477   -2.8792    0.2674 H   0  0  0  0  0  0  0  0  0  0  0  0
   -1.3748   -0.3951    1.4919 H   0  0  0  0  0  0  0  0  0  0  0  0
   -0.2907   -0.0421   -1.3593 H   0  0  0  0  0  0  0  0  0  0  0  0
   -2.6240    0.6350   -2.7743 H   0  0  0  0  0  0  0  0  0  0  0  0
   -1.6447    2.1202   -2.4073 H   0  0  0  0  0  0  0  0  0  0  0  0
   -4.1256    1.9515   -1.1071 H   0  0  0  0  0  0  0  0  0  0  0  0
  1  2  1  0
  2  3  1  0
  3  4  1  0
  4  5  1  0
  5  6  1  0
  6  7  1  0
  6  8  1  0
  8  9  1  0
  9 10  1  0
 10 11  2  0
 10 12  1  0
 12 13  1  0
  8  4  1  0
  1 14  1  0
  1 15  1  0
  1 16  1  0
  2 17  1  0
  2 18  1  0
  4 19  1  1
  5 20  1  0
  5 21  1  0
  6 22  1  6
  7 23  1  0
  7 24  1  0
  8 25  1  1
  9 26  1  0
 12 27  1  0
 12 28  1  0
 13 29  1  0
M  END
$$$$

     RDKit          3D

 29 29  0  0  0  0  0  0  0  0999 V2000
   -2.2078   -2.0260   -0.2311 C   0  0  0  0  0  0  0  0  0  0  0  0
   -2.7451   -0.7033   -0.6851 C   0  0  0  0  0  0  0  0  0  0  0  0
   -1.8170    0.3069   -0.7225 O   0  0  0  0  0  0  0  0  0  0  0  0
   -1.2223    0.5962    0.4752 C   0  0  2  0  0  0  0  0  0  0  0  0
   -1.1837    2.0946    0.8062 C   0  0  0  0  0  0  0  0  0  0  0  0
    0.1707    2.1073    0.0820 C   0  0  1  0  0  0  0  0  0  0  0  0
    1.1199    2.9489    0.7500 N   0  0  0  0  0  0  0  0  0  0  0  0
    0.2861    0.6527    0.4783 C   0  0  2  0  0  0  0  0  0  0  0  0
    0.9659   -0.2063   -0.4208 N   0  0  0  0  0  0  0  0  0  0  0  0
    2.0483   -1.0481   -0.0378 C   0  0  0  0  0  0  0  0  0  0  0  0
    2.4547   -1.0582    1.1617 O   0  0  0  0  0  0  0  0  0  0  0  0
    2.7431   -1.9377   -0.9972 C   0  0  0  0  0  0  0  0  0  0  0  0
    3.7433   -2.6237   -0.3251 O   0  0  0  0  0  0  0  0  0  0  0  0
   -1.1435   -2.1720   -0.4382 H   0  0  0  0  0  0  0  0  0  0  0  0
   -2.7660   -2.8456   -0.7723 H   0  0  0  0  0  0  0  0  0  0  0  0
   -2.4204   -2.2314    0.8566 H   0  0  0  0  0  0  0  0  0  0  0  0
   -3.1358   -0.8348   -1.7227 H   0  0  0  0  0  0  0  0  0  0  0  0
   -3.6362   -0.4132   -0.0716 H   0  0  0  0  0  0  0  0  0  0  0  0
   -1.5920   -0.0390    1.2846 H   0  0  0  0  0  0  0  0  0  0  0  0
   -1.0917    2.2300    1.8976 H   0  0  0  0  0  0  0  0  0  0  0  0
   -1.9169    2.6968    0.2755 H   0  0  0  0  0  0  0  0  0  0  0  0
    0.0209    2.2976   -0.9859 H   0  0  0  0  0  0  0  0  0  0  0  0
    0.6993    3.8593    0.9808 H   0  0  0  0  0  0  0  0  0  0  0  0
    1.4613    2.5051    1.6169 H   0  0  0  0  0  0  0  0  0  0  0  0
    0.6903    0.5977    1.5176 H   0  0  0  0  0  0  0  0  0  0  0  0
    0.6739   -0.2372   -1.4142 H   0  0  0  0  0  0  0  0  0  0  0  0
    3.2426   -1.2719   -1.7393 H   0  0  0  0  0  0  0  0  0  0  0  0
    2.0506   -2.6498   -1.4893 H   0  0  0  0  0  0  0  0  0  0  0  0
    4.5072   -2.0336   -0.1301 H   0  0  0  0  0  0  0  0  0  0  0  0
  1  2  1  0
  2  3  1  0
  3  4  1  0
  4  5  1  0
  5  6  1  0
  6  7  1  0
  6  8  1  0
  8  9  1  0
  9 10  1  0
 10 11  2  0
 10 12  1  0
 12 13  1  0
  8  4  1  0
  1 14  1  0
  1 15  1  0
  1 16  1  0
  2 17  1  0
  2 18  1  0
  4 19  1  1
  5 20  1  0
  5 21  1  0
  6 22  1  6
  7 23  1  0
  7 24  1  0
  8 25  1  1
  9 26  1  0
 12 27  1  0
 12 28  1  0
 13 29  1  0
M  END
$$$$

     RDKit          3D

 29 29  0  0  0  0  0  0  0  0999 V2000
   -2.0891   -1.2001    1.8636 C   0  0  0  0  0  0  0  0  0  0  0  0
   -2.3857   -1.4761    0.4255 C   0  0  0  0  0  0  0  0  0  0  0  0
   -1.3300   -1.0327   -0.3749 O   0  0  0  0  0  0  0  0  0  0  0  0
   -1.1845    0.3261   -0.1775 C   0  0  2  0  0  0  0  0  0  0  0  0
   -1.1838    1.0607   -1.5093 C   0  0  0  0  0  0  0  0  0  0  0  0
   -0.0699    1.9230   -0.9702 C   0  0  1  0  0  0  0  0  0  0  0  0
   -0.5498    3.1235   -0.3181 N   0  0  0  0  0  0  0  0  0  0  0  0
    0.2341    0.8089    0.0308 C   0  0  2  0  0  0  0  0  0  0  0  0
    1.1672   -0.1720   -0.4433 N   0  0  0  0  0  0  0  0  0  0  0  0
    2.2864   -0.5935    0.3199 C   0  0  0  0  0  0  0  0  0  0  0  0
    2.4857   -0.0997    1.4591 O   0  0  0  0  0  0  0  0  0  0  0  0
    3.2383   -1.6105   -0.1926 C   0  0  0  0  0  0  0  0  0  0  0  0
    4.2272   -1.8407    0.7329 O   0  0  0  0  0  0  0  0  0  0  0  0
   -2.0458   -2.1753    2.4260 H   0  0  0  0  0  0  0  0  0  0  0  0
   -2.8709   -0.5439    2.2721 H   0  0  0  0  0  0  0  0  0  0  0  0
   -1.1104   -0.6918    1.9901 H   0  0  0  0  0  0  0  0  0  0  0  0
   -3.3050   -0.9440    0.0944 H   0  0  0  0  0  0  0  0  0  0  0  0
   -2.4879   -2.5681    0.2161 H   0  0  0  0  0  0  0  0  0  0  0  0
   -1.8984    0.7805    0.5425 H   0  0  0  0  0  0  0  0  0  0  0  0
   -0.8716    0.4293   -2.3522 H   0  0  0  0  0  0  0  0  0  0  0  0
   -2.1356    1.5921   -1.7203 H   0  0  0  0  0  0  0  0  0  0  0  0
    0.7431    2.0806   -1.7105 H   0  0  0  0  0  0  0  0  0  0  0  0
   -0.0491    3.9593   -0.6484 H   0  0  0  0  0  0  0  0  0  0  0  0
   -1.5828    3.2233   -0.4252 H   0  0  0  0  0  0  0  0  0  0  0  0
    0.4320    1.2229    1.0278 H   0  0  0  0  0  0  0  0  0  0  0  0
    1.0286   -0.5960   -1.3776 H   0  0  0  0  0  0  0  0  0  0  0  0
    3.7088   -1.2762   -1.1409 H   0  0  0  0  0  0  0  0  0  0  0  0
    2.6800   -2.5554   -0.4208 H   0  0  0  0  0  0  0  0  0  0  0  0
    4.9190   -1.1542    0.6593 H   0  0  0  0  0  0  0  0  0  0  0  0
  1  2  1  0
  2  3  1  0
  3  4  1  0
  4  5  1  0
  5  6  1  0
  6  7  1  0
  6  8  1  0
  8  9  1  0
  9 10  1  0
 10 11  2  0
 10 12  1  0
 12 13  1  0
  8  4  1  0
  1 14  1  0
  1 15  1  0
  1 16  1  0
  2 17  1  0
  2 18  1  0
  4 19  1  1
  5 20  1  0
  5 21  1  0
  6 22  1  6
  7 23  1  0
  7 24  1  0
  8 25  1  1
  9 26  1  0
 12 27  1  0
 12 28  1  0
 13 29  1  0
M  END
$$$$

     RDKit          3D

 29 29  0  0  0  0  0  0  0  0999 V2000
   -3.0753    2.0528    1.2499 C   0  0  0  0  0  0  0  0  0  0  0  0
   -2.3185    1.5331    0.0613 C   0  0  0  0  0  0  0  0  0  0  0  0
   -1.7173    0.2839    0.3213 O   0  0  0  0  0  0  0  0  0  0  0  0
   -1.0584   -0.0759   -0.8471 C   0  0  2  0  0  0  0  0  0  0  0  0
   -1.4923   -1.5000   -1.2275 C   0  0  0  0  0  0  0  0  0  0  0  0
   -0.4330   -1.9524   -0.2324 C   0  0  1  0  0  0  0  0  0  0  0  0
    0.2100   -3.1900   -0.6141 N   0  0  0  0  0  0  0  0  0  0  0  0
    0.3106   -0.6969   -0.6462 C   0  0  2  0  0  0  0  0  0  0  0  0
    1.1454   -0.0970    0.3230 N   0  0  0  0  0  0  0  0  0  0  0  0
    2.4858    0.2426   -0.0287 C   0  0  0  0  0  0  0  0  0  0  0  0
    2.8789   -0.0049   -1.1934 O   0  0  0  0  0  0  0  0  0  0  0  0
    3.4247    0.8734    0.9269 C   0  0  0  0  0  0  0  0  0  0  0  0
    4.6549    1.0898    0.3131 O   0  0  0  0  0  0  0  0  0  0  0  0
   -2.8512    1.4863    2.1725 H   0  0  0  0  0  0  0  0  0  0  0  0
   -2.8601    3.1149    1.4553 H   0  0  0  0  0  0  0  0  0  0  0  0
   -4.1780    1.9983    1.0336 H   0  0  0  0  0  0  0  0  0  0  0  0
   -1.5088    2.2888   -0.1536 H   0  0  0  0  0  0  0  0  0  0  0  0
   -2.9646    1.4850   -0.8505 H   0  0  0  0  0  0  0  0  0  0  0  0
   -1.1334    0.6405   -1.6865 H   0  0  0  0  0  0  0  0  0  0  0  0
   -2.5262   -1.7414   -0.9440 H   0  0  0  0  0  0  0  0  0  0  0  0
   -1.1739   -1.7114   -2.2485 H   0  0  0  0  0  0  0  0  0  0  0  0
   -0.8261   -1.9419    0.7992 H   0  0  0  0  0  0  0  0  0  0  0  0
    1.0444   -3.3278   -0.0199 H   0  0  0  0  0  0  0  0  0  0  0  0
    0.3897   -3.1569   -1.6258 H   0  0  0  0  0  0  0  0  0  0  0  0
    0.7810   -0.8586   -1.6287 H   0  0  0  0  0  0  0  0  0  0  0  0
    0.8320    0.1114    1.2854 H   0  0  0  0  0  0  0  0  0  0  0  0
    2.9943    1.8175    1.3098 H   0  0  0  0  0  0  0  0  0  0  0  0
    3.5497    0.1650    1.7732 H   0  0  0  0  0  0  0  0  0  0  0  0
    5.4156    1.0717    0.9224 H   0  0  0  0  0  0  0  0  0  0  0  0
  1  2  1  0
  2  3  1  0
  3  4  1  0
  4  5  1  0
  5  6  1  0
  6  7  1  0
  6  8  1  0
  8  9  1  0
  9 10  1  0
 10 11  2  0
 10 12  1  0
 12 13  1  0
  8  4  1  0
  1 14  1  0
  1 15  1  0
  1 16  1  0
  2 17  1  0
  2 18  1  0
  4 19  1  6
  5 20  1  0
  5 21  1  0
  6 22  1  1
  7 23  1  0
  7 24  1  0
  8 25  1  6
  9 26  1  0
 12 27  1  0
 12 28  1  0
 13 29  1  0
M  END
$$$$

     RDKit          3D

 29 29  0  0  0  0  0  0  0  0999 V2000
   -3.3473   -1.3589   -0.7522 C   0  0  0  0  0  0  0  0  0  0  0  0
   -1.9466   -1.6352   -1.1831 C   0  0  0  0  0  0  0  0  0  0  0  0
   -1.0904   -0.5562   -1.0139 O   0  0  0  0  0  0  0  0  0  0  0  0
   -0.9848   -0.1353    0.2843 C   0  0  2  0  0  0  0  0  0  0  0  0
   -1.2007    1.3798    0.3993 C   0  0  0  0  0  0  0  0  0  0  0  0
   -0.1159    1.3479    1.4836 C   0  0  1  0  0  0  0  0  0  0  0  0
   -0.7333    1.1319    2.7598 N   0  0  0  0  0  0  0  0  0  0  0  0
    0.4179    0.1053    0.8016 C   0  0  2  0  0  0  0  0  0  0  0  0
    1.3816    0.4830   -0.2055 N   0  0  0  0  0  0  0  0  0  0  0  0
    2.6419   -0.1284   -0.2781 C   0  0  0  0  0  0  0  0  0  0  0  0
    2.9001   -1.0236    0.5738 O   0  0  0  0  0  0  0  0  0  0  0  0
    3.6749    0.2132   -1.2865 C   0  0  0  0  0  0  0  0  0  0  0  0
    4.8035   -0.5546   -1.1030 O   0  0  0  0  0  0  0  0  0  0  0  0
   -3.6358   -0.2940   -0.8768 H   0  0  0  0  0  0  0  0  0  0  0  0
   -4.0338   -1.9494   -1.3941 H   0  0  0  0  0  0  0  0  0  0  0  0
   -3.5312   -1.7215    0.2915 H   0  0  0  0  0  0  0  0  0  0  0  0
   -1.9544   -1.8889   -2.2631 H   0  0  0  0  0  0  0  0  0  0  0  0
   -1.6023   -2.5505   -0.6574 H   0  0  0  0  0  0  0  0  0  0  0  0
   -1.5685   -0.6724    1.0498 H   0  0  0  0  0  0  0  0  0  0  0  0
   -0.8526    1.9005   -0.5158 H   0  0  0  0  0  0  0  0  0  0  0  0
   -2.1877    1.6522    0.7817 H   0  0  0  0  0  0  0  0  0  0  0  0
    0.5617    2.1973    1.4864 H   0  0  0  0  0  0  0  0  0  0  0  0
   -0.4860    1.8271    3.4767 H   0  0  0  0  0  0  0  0  0  0  0  0
   -1.7343    0.8741    2.7153 H   0  0  0  0  0  0  0  0  0  0  0  0
    0.7666   -0.6882    1.4843 H   0  0  0  0  0  0  0  0  0  0  0  0
    1.1204    1.2241   -0.8822 H   0  0  0  0  0  0  0  0  0  0  0  0
    3.3262    0.0716   -2.3279 H   0  0  0  0  0  0  0  0  0  0  0  0
    3.9852    1.2828   -1.1448 H   0  0  0  0  0  0  0  0  0  0  0  0
    5.4257   -0.5336   -1.8507 H   0  0  0  0  0  0  0  0  0  0  0  0
  1  2  1  0
  2  3  1  0
  3  4  1  0
  4  5  1  0
  5  6  1  0
  6  7  1  0
  6  8  1  0
  8  9  1  0
  9 10  1  0
 10 11  2  0
 10 12  1  0
 12 13  1  0
  8  4  1  0
  1 14  1  0
  1 15  1  0
  1 16  1  0
  2 17  1  0
  2 18  1  0
  4 19  1  1
  5 20  1  0
  5 21  1  0
  6 22  1  1
  7 23  1  0
  7 24  1  0
  8 25  1  1
  9 26  1  0
 12 27  1  0
 12 28  1  0
 13 29  1  0
M  END
$$$$

     RDKit          3D

 29 29  0  0  0  0  0  0  0  0999 V2000
   -1.2018    1.5676   -1.8746 C   0  0  0  0  0  0  0  0  0  0  0  0
   -2.2652    0.9970   -0.9829 C   0  0  0  0  0  0  0  0  0  0  0  0
   -1.7896    0.1872    0.0174 O   0  0  0  0  0  0  0  0  0  0  0  0
   -1.0934   -0.9169   -0.4163 C   0  0  2  0  0  0  0  0  0  0  0  0
   -1.3889   -2.2156    0.2907 C   0  0  0  0  0  0  0  0  0  0  0  0
   -0.3726   -1.7716    1.3561 C   0  0  1  0  0  0  0  0  0  0  0  0
    0.4310   -2.8686    1.8542 N   0  0  0  0  0  0  0  0  0  0  0  0
    0.2663   -0.9611    0.2968 C   0  0  2  0  0  0  0  0  0  0  0  0
    0.8437    0.2872    0.5948 N   0  0  0  0  0  0  0  0  0  0  0  0
    2.1279    0.6576    0.1446 C   0  0  0  0  0  0  0  0  0  0  0  0
    2.7448   -0.1908   -0.5463 O   0  0  0  0  0  0  0  0  0  0  0  0
    2.7854    1.9509    0.4246 C   0  0  0  0  0  0  0  0  0  0  0  0
    1.9346    2.7340    1.1988 O   0  0  0  0  0  0  0  0  0  0  0  0
   -0.3151    0.9263   -1.9750 H   0  0  0  0  0  0  0  0  0  0  0  0
   -1.5912    1.7453   -2.9164 H   0  0  0  0  0  0  0  0  0  0  0  0
   -0.8848    2.5859   -1.5090 H   0  0  0  0  0  0  0  0  0  0  0  0
   -2.8310    1.8248   -0.5059 H   0  0  0  0  0  0  0  0  0  0  0  0
   -3.0185    0.4759   -1.6395 H   0  0  0  0  0  0  0  0  0  0  0  0
   -1.0172   -0.9925   -1.5159 H   0  0  0  0  0  0  0  0  0  0  0  0
   -2.4013   -2.3585    0.6557 H   0  0  0  0  0  0  0  0  0  0  0  0
   -1.0191   -3.0620   -0.3076 H   0  0  0  0  0  0  0  0  0  0  0  0
   -0.9347   -1.2661    2.1498 H   0  0  0  0  0  0  0  0  0  0  0  0
   -0.1513   -3.7282    1.8361 H   0  0  0  0  0  0  0  0  0  0  0  0
    1.3336   -2.9529    1.3548 H   0  0  0  0  0  0  0  0  0  0  0  0
    0.9383   -1.5967   -0.3219 H   0  0  0  0  0  0  0  0  0  0  0  0
    0.3128    0.9807    1.1724 H   0  0  0  0  0  0  0  0  0  0  0  0
    3.7828    1.8217    0.9048 H   0  0  0  0  0  0  0  0  0  0  0  0
    2.9834    2.4952   -0.5400 H   0  0  0  0  0  0  0  0  0  0  0  0
    1.7908    3.6444    0.7996 H   0  0  0  0  0  0  0  0  0  0  0  0
  1  2  1  0
  2  3  1  0
  3  4  1  0
  4  5  1  0
  5  6  1  0
  6  7  1  0
  6  8  1  0
  8  9  1  0
  9 10  1  0
 10 11  2  0
 10 12  1  0
 12 13  1  0
  8  4  1  0
  1 14  1  0
  1 15  1  0
  1 16  1  0
  2 17  1  0
  2 18  1  0
  4 19  1  6
  5 20  1  0
  5 21  1  0
  6 22  1  1
  7 23  1  0
  7 24  1  0
  8 25  1  6
  9 26  1  0
 12 27  1  0
 12 28  1  0
 13 29  1  0
M  END
$$$$

     RDKit          3D

 29 29  0  0  0  0  0  0  0  0999 V2000
   -2.7912    2.1307    0.4269 C   0  0  0  0  0  0  0  0  0  0  0  0
   -2.0083    1.4936   -0.7060 C   0  0  0  0  0  0  0  0  0  0  0  0
   -1.4992    0.2980   -0.2246 O   0  0  0  0  0  0  0  0  0  0  0  0
   -0.7559   -0.4001   -1.1547 C   0  0  2  0  0  0  0  0  0  0  0  0
   -1.2543   -1.8521   -1.1359 C   0  0  0  0  0  0  0  0  0  0  0  0
   -0.4294   -1.9593    0.1376 C   0  0  1  0  0  0  0  0  0  0  0  0
    0.0347   -3.3097    0.3002 N   0  0  0  0  0  0  0  0  0  0  0  0
    0.5190   -1.0100   -0.5482 C   0  0  2  0  0  0  0  0  0  0  0  0
    1.2036   -0.0689    0.2682 N   0  0  0  0  0  0  0  0  0  0  0  0
    2.5874    0.2354    0.1405 C   0  0  0  0  0  0  0  0  0  0  0  0
    3.2070   -0.3867   -0.7606 O   0  0  0  0  0  0  0  0  0  0  0  0
    3.2667    1.2316    1.0200 C   0  0  0  0  0  0  0  0  0  0  0  0
    2.4117    1.7923    1.9314 O   0  0  0  0  0  0  0  0  0  0  0  0
   -2.0945    2.6402    1.1323 H   0  0  0  0  0  0  0  0  0  0  0  0
   -3.5246    2.8689    0.0845 H   0  0  0  0  0  0  0  0  0  0  0  0
   -3.3681    1.3513    1.0020 H   0  0  0  0  0  0  0  0  0  0  0  0
   -1.1806    2.1535   -0.9924 H   0  0  0  0  0  0  0  0  0  0  0  0
   -2.6945    1.2750   -1.5551 H   0  0  0  0  0  0  0  0  0  0  0  0
   -0.6365    0.0261   -2.1438 H   0  0  0  0  0  0  0  0  0  0  0  0
   -0.7880   -2.4381   -1.9282 H   0  0  0  0  0  0  0  0  0  0  0  0
   -2.3363   -1.9526   -0.9988 H   0  0  0  0  0  0  0  0  0  0  0  0
   -0.9495   -1.5064    0.9831 H   0  0  0  0  0  0  0  0  0  0  0  0
    0.0991   -3.4789    1.3455 H   0  0  0  0  0  0  0  0  0  0  0  0
    0.9170   -3.5240   -0.1873 H   0  0  0  0  0  0  0  0  0  0  0  0
    1.0875   -1.5299   -1.3181 H   0  0  0  0  0  0  0  0  0  0  0  0
    0.6742    0.4382    1.0108 H   0  0  0  0  0  0  0  0  0  0  0  0
    4.0768    0.6629    1.5521 H   0  0  0  0  0  0  0  0  0  0  0  0
    3.7833    2.0188    0.4414 H   0  0  0  0  0  0  0  0  0  0  0  0
    2.4429    2.7999    1.8770 H   0  0  0  0  0  0  0  0  0  0  0  0
  1  2  1  0
  2  3  1  0
  3  4  1  0
  4  5  1  0
  5  6  1  0
  6  7  1  0
  6  8  1  0
  8  9  1  0
  9 10  1  0
 10 11  2  0
 10 12  1  0
 12 13  1  0
  8  4  1  0
  1 14  1  0
  1 15  1  0
  1 16  1  0
  2 17  1  0
  2 18  1  0
  4 19  1  6
  5 20  1  0
  5 21  1  0
  6 22  1  1
  7 23  1  0
  7 24  1  0
  8 25  1  6
  9 26  1  0
 12 27  1  0
 12 28  1  0
 13 29  1  0
M  END
$$$$
