
     RDKit          3D

 21 21  0  0  0  0  0  0  0  0999 V2000
    3.6588    1.2409   -0.1359 N   0  0  0  0  0  0  0  0  0  0  0  0
    2.3708    0.7480    0.1574 C   0  0  0  0  0  0  0  0  0  0  0  0
    1.7738    0.9414    1.2452 O   0  0  0  0  0  0  0  0  0  0  0  0
    1.6773   -0.0549   -0.8975 C   0  0  0  0  0  0  0  0  0  0  0  0
    0.3617   -0.4839   -0.4299 N   0  0  0  0  0  0  0  0  0  0  0  0
    0.2207   -1.6554    0.2181 C   0  0  0  0  0  0  0  0  0  0  0  0
   -1.0193   -2.0723    0.6656 C   0  0  0  0  0  0  0  0  0  0  0  0
   -2.1048   -1.3027    0.4545 N   0  0  0  0  0  0  0  0  0  0  0  0
   -1.9964   -0.1133   -0.1971 C   0  0  0  0  0  0  0  0  0  0  0  0
   -3.1767    0.7082   -0.4186 C   0  0  0  0  0  0  0  0  0  0  0  0
   -3.0334    1.7955   -1.0223 O   0  0  0  0  0  0  0  0  0  0  0  0
   -4.4403    0.3510    0.0015 O   0  0  0  0  0  0  0  0  0  0  0  0
   -0.7420    0.2563   -0.6221 C   0  0  0  0  0  0  0  0  0  0  0  0
   -0.6015    1.3446   -1.2259 O   0  0  0  0  0  0  0  0  0  0  0  0
    4.3847    0.5875   -0.4709 H   0  0  0  0  0  0  0  0  0  0  0  0
    3.8646    2.2442   -0.0142 H   0  0  0  0  0  0  0  0  0  0  0  0
    2.3242   -0.9132   -1.1446 H   0  0  0  0  0  0  0  0  0  0  0  0
    1.6066    0.5811   -1.7922 H   0  0  0  0  0  0  0  0  0  0  0  0
    1.1219   -2.2435    0.3664 H   0  0  0  0  0  0  0  0  0  0  0  0
   -1.1166   -3.0073    1.1801 H   0  0  0  0  0  0  0  0  0  0  0  0
   -5.1341    1.0479    0.2844 H   0  0  0  0  0  0  0  0  0  0  0  0
  1  2  1  0
  2  3  2  0
  2  4  1  0
  4  5  1  0
  5  6  1  0
  6  7  2  0
  7  8  1  0
  8  9  2  0
  9 10  1  0
 10 11  2  0
 10 12  1  0
  9 13  1  0
 13 14  2  0
 13  5  1  0
  1 15  1  0
  1 16  1  0
  4 17  1  0
  4 18  1  0
  6 19  1  0
  7 20  1  0
 12 21  1  0
M  END
$$$$

     RDKit          3D

 21 21  0  0  0  0  0  0  0  0999 V2000
   -3.7821    0.3259    0.9104 N   0  0  0  0  0  0  0  0  0  0  0  0
   -2.3800    0.1020    0.9480 C   0  0  0  0  0  0  0  0  0  0  0  0
   -1.7670    0.3263    2.0234 O   0  0  0  0  0  0  0  0  0  0  0  0
   -1.6944   -0.3851   -0.2747 C   0  0  0  0  0  0  0  0  0  0  0  0
   -0.2775   -0.5417   -0.0077 N   0  0  0  0  0  0  0  0  0  0  0  0
    0.2260   -1.6880    0.4469 C   0  0  0  0  0  0  0  0  0  0  0  0
    1.5658   -1.8603    0.7074 C   0  0  0  0  0  0  0  0  0  0  0  0
    2.3834   -0.8111    0.4857 N   0  0  0  0  0  0  0  0  0  0  0  0
    1.9145    0.3613    0.0277 C   0  0  0  0  0  0  0  0  0  0  0  0
    2.7882    1.5120   -0.2189 C   0  0  0  0  0  0  0  0  0  0  0  0
    2.3436    2.6036   -0.6466 O   0  0  0  0  0  0  0  0  0  0  0  0
    4.1598    1.4479    0.0108 O   0  0  0  0  0  0  0  0  0  0  0  0
    0.5667    0.5013   -0.2233 C   0  0  0  0  0  0  0  0  0  0  0  0
    0.0957    1.5871   -0.6530 O   0  0  0  0  0  0  0  0  0  0  0  0
   -4.4367   -0.3769    1.2772 H   0  0  0  0  0  0  0  0  0  0  0  0
   -4.1088    1.2253    0.4983 H   0  0  0  0  0  0  0  0  0  0  0  0
   -2.1149   -1.3294   -0.6395 H   0  0  0  0  0  0  0  0  0  0  0  0
   -1.7825    0.3921   -1.0652 H   0  0  0  0  0  0  0  0  0  0  0  0
   -0.4096   -2.5645    0.6393 H   0  0  0  0  0  0  0  0  0  0  0  0
    1.9477   -2.8210    1.0823 H   0  0  0  0  0  0  0  0  0  0  0  0
    4.7619    1.9931   -0.6141 H   0  0  0  0  0  0  0  0  0  0  0  0
  1  2  1  0
  2  3  2  0
  2  4  1  0
  4  5  1  0
  5  6  1  0
  6  7  2  0
  7  8  1  0
  8  9  2  0
  9 10  1  0
 10 11  2  0
 10 12  1  0
  9 13  1  0
 13 14  2  0
 13  5  1  0
  1 15  1  0
  1 16  1  0
  4 17  1  0
  4 18  1  0
  6 19  1  0
  7 20  1  0
 12 21  1  0
M  END
$$$$

     RDKit          3D

 21 21  0  0  0  0  0  0  0  0999 V2000
   -3.4926   -1.3741   -0.3102 N   0  0  0  0  0  0  0  0  0  0  0  0
   -2.2601   -0.7173   -0.5023 C   0  0  0  0  0  0  0  0  0  0  0  0
   -1.7931   -0.6348   -1.6690 O   0  0  0  0  0  0  0  0  0  0  0  0
   -1.5713   -0.1528    0.6881 C   0  0  0  0  0  0  0  0  0  0  0  0
   -0.3277    0.4873    0.3453 N   0  0  0  0  0  0  0  0  0  0  0  0
   -0.2411    1.7889    0.0228 C   0  0  0  0  0  0  0  0  0  0  0  0
    0.9365    2.4241   -0.3087 C   0  0  0  0  0  0  0  0  0  0  0  0
    2.0643    1.6955   -0.3087 N   0  0  0  0  0  0  0  0  0  0  0  0
    2.0382    0.3710    0.0100 C   0  0  0  0  0  0  0  0  0  0  0  0
    3.2532   -0.4227    0.0122 C   0  0  0  0  0  0  0  0  0  0  0  0
    4.3507    0.0937   -0.2788 O   0  0  0  0  0  0  0  0  0  0  0  0
    3.1882   -1.7568    0.3391 O   0  0  0  0  0  0  0  0  0  0  0  0
    0.8198   -0.2126    0.3355 C   0  0  0  0  0  0  0  0  0  0  0  0
    0.7448   -1.4427    0.6393 O   0  0  0  0  0  0  0  0  0  0  0  0
   -3.5033   -2.3968   -0.2005 H   0  0  0  0  0  0  0  0  0  0  0  0
   -4.3642   -0.8266   -0.2818 H   0  0  0  0  0  0  0  0  0  0  0  0
   -2.2237    0.5512    1.2540 H   0  0  0  0  0  0  0  0  0  0  0  0
   -1.4033   -1.0157    1.3902 H   0  0  0  0  0  0  0  0  0  0  0  0
   -1.1505    2.3885    0.0199 H   0  0  0  0  0  0  0  0  0  0  0  0
    0.9429    3.4944   -0.5640 H   0  0  0  0  0  0  0  0  0  0  0  0
    3.9923   -2.3420    0.5244 H   0  0  0  0  0  0  0  0  0  0  0  0
  1  2  1  0
  2  3  2  0
  2  4  1  0
  4  5  1  0
  5  6  1  0
  6  7  2  0
  7  8  1  0
  8  9  2  0
  9 10  1  0
 10 11  2  0
 10 12  1  0
  9 13  1  0
 13 14  2  0
 13  5  1  0
  1 15  1  0
  1 16  1  0
  4 17  1  0
  4 18  1  0
  6 19  1  0
  7 20  1  0
 12 21  1  0
M  END
$$$$

     RDKit          3D

 21 21  0  0  0  0  0  0  0  0999 V2000
   -2.4443   -0.5417    1.0175 N   0  0  0  0  0  0  0  0  0  0  0  0
   -2.6677    0.6009    0.2054 C   0  0  0  0  0  0  0  0  0  0  0  0
   -3.7733    1.1867    0.3054 O   0  0  0  0  0  0  0  0  0  0  0  0
   -1.6366    1.1012   -0.7382 C   0  0  0  0  0  0  0  0  0  0  0  0
   -0.4388    0.2893   -0.7025 N   0  0  0  0  0  0  0  0  0  0  0  0
   -0.3151   -0.7641   -1.5176 C   0  0  0  0  0  0  0  0  0  0  0  0
    0.8461   -1.5293   -1.4644 C   0  0  0  0  0  0  0  0  0  0  0  0
    1.8177   -1.1895   -0.5922 N   0  0  0  0  0  0  0  0  0  0  0  0
    1.6968   -0.1445    0.2175 C   0  0  0  0  0  0  0  0  0  0  0  0
    2.7496    0.2206    1.1599 C   0  0  0  0  0  0  0  0  0  0  0  0
    2.6118    1.2137    1.9157 O   0  0  0  0  0  0  0  0  0  0  0  0
    3.9237   -0.4991    1.2593 O   0  0  0  0  0  0  0  0  0  0  0  0
    0.5481    0.6028    0.1567 C   0  0  0  0  0  0  0  0  0  0  0  0
    0.4582    1.6004    0.9450 O   0  0  0  0  0  0  0  0  0  0  0  0
   -2.9961   -1.4212    0.9122 H   0  0  0  0  0  0  0  0  0  0  0  0
   -1.7028   -0.5530    1.7716 H   0  0  0  0  0  0  0  0  0  0  0  0
   -1.3754    2.1549   -0.4337 H   0  0  0  0  0  0  0  0  0  0  0  0
   -1.9891    1.1171   -1.7813 H   0  0  0  0  0  0  0  0  0  0  0  0
   -1.0721   -1.0662   -2.2286 H   0  0  0  0  0  0  0  0  0  0  0  0
    0.9523   -2.3820   -2.1205 H   0  0  0  0  0  0  0  0  0  0  0  0
    4.8071    0.0030    1.4185 H   0  0  0  0  0  0  0  0  0  0  0  0
  1  2  1  0
  2  3  2  0
  2  4  1  0
  4  5  1  0
  5  6  1  0
  6  7  2  0
  7  8  1  0
  8  9  2  0
  9 10  1  0
 10 11  2  0
 10 12  1  0
  9 13  1  0
 13 14  2  0
 13  5  1  0
  1 15  1  0
  1 16  1  0
  4 17  1  0
  4 18  1  0
  6 19  1  0
  7 20  1  0
 12 21  1  0
M  END
$$$$

     RDKit          3D

 21 21  0  0  0  0  0  0  0  0999 V2000
    2.9726    1.0724    2.1807 N   0  0  0  0  0  0  0  0  0  0  0  0
    2.0306    0.4014    1.3674 C   0  0  0  0  0  0  0  0  0  0  0  0
    2.4889   -0.3132    0.4251 O   0  0  0  0  0  0  0  0  0  0  0  0
    0.5705    0.5353    1.6158 C   0  0  0  0  0  0  0  0  0  0  0  0
   -0.2023   -0.2360    0.6650 N   0  0  0  0  0  0  0  0  0  0  0  0
   -0.5346   -1.5137    0.9173 C   0  0  0  0  0  0  0  0  0  0  0  0
   -1.2815   -2.2607   -0.0009 C   0  0  0  0  0  0  0  0  0  0  0  0
   -1.6719   -1.6880   -1.1540 N   0  0  0  0  0  0  0  0  0  0  0  0
   -1.3540   -0.4184   -1.4284 C   0  0  0  0  0  0  0  0  0  0  0  0
   -1.7625    0.2328   -2.6712 C   0  0  0  0  0  0  0  0  0  0  0  0
   -2.4321   -0.4209   -3.5054 O   0  0  0  0  0  0  0  0  0  0  0  0
   -1.4284    1.5476   -2.9457 O   0  0  0  0  0  0  0  0  0  0  0  0
   -0.6065    0.3082   -0.4948 C   0  0  0  0  0  0  0  0  0  0  0  0
   -0.3337    1.4997   -0.8015 O   0  0  0  0  0  0  0  0  0  0  0  0
    2.8278    2.0694    2.4247 H   0  0  0  0  0  0  0  0  0  0  0  0
    3.8010    0.5615    2.5266 H   0  0  0  0  0  0  0  0  0  0  0  0
    0.2690    1.6082    1.6277 H   0  0  0  0  0  0  0  0  0  0  0  0
    0.3857    0.1392    2.6541 H   0  0  0  0  0  0  0  0  0  0  0  0
   -0.2088   -1.9559    1.8545 H   0  0  0  0  0  0  0  0  0  0  0  0
   -1.5390   -3.2924    0.2237 H   0  0  0  0  0  0  0  0  0  0  0  0
   -1.9908    2.1234   -3.5622 H   0  0  0  0  0  0  0  0  0  0  0  0
  1  2  1  0
  2  3  2  0
  2  4  1  0
  4  5  1  0
  5  6  1  0
  6  7  2  0
  7  8  1  0
  8  9  2  0
  9 10  1  0
 10 11  2  0
 10 12  1  0
  9 13  1  0
 13 14  2  0
 13  5  1  0
  1 15  1  0
  1 16  1  0
  4 17  1  0
  4 18  1  0
  6 19  1  0
  7 20  1  0
 12 21  1  0
M  END
$$$$

     RDKit          3D

 21 21  0  0  0  0  0  0  0  0999 V2000
    3.4122    0.9066   -0.4095 N   0  0  0  0  0  0  0  0  0  0  0  0
    2.1791    1.4165    0.0777 C   0  0  0  0  0  0  0  0  0  0  0  0
    1.7591    2.5021   -0.3763 O   0  0  0  0  0  0  0  0  0  0  0  0
    1.4686    0.6212    1.0991 C   0  0  0  0  0  0  0  0  0  0  0  0
    0.4030   -0.1931    0.5587 N   0  0  0  0  0  0  0  0  0  0  0  0
    0.6433   -1.4372    0.1005 C   0  0  0  0  0  0  0  0  0  0  0  0
   -0.4284   -2.1443   -0.4057 C   0  0  0  0  0  0  0  0  0  0  0  0
   -1.6621   -1.6223   -0.4425 N   0  0  0  0  0  0  0  0  0  0  0  0
   -1.9253   -0.3652    0.0173 C   0  0  0  0  0  0  0  0  0  0  0  0
   -3.2630    0.2059   -0.0179 C   0  0  0  0  0  0  0  0  0  0  0  0
   -3.3990    1.3766    0.4453 O   0  0  0  0  0  0  0  0  0  0  0  0
   -4.3863   -0.4133   -0.5090 O   0  0  0  0  0  0  0  0  0  0  0  0
   -0.8376    0.3277    0.5198 C   0  0  0  0  0  0  0  0  0  0  0  0
   -1.0848    1.4946    0.9447 O   0  0  0  0  0  0  0  0  0  0  0  0
    4.3228    1.1220    0.1015 H   0  0  0  0  0  0  0  0  0  0  0  0
    3.4591    0.3210   -1.2563 H   0  0  0  0  0  0  0  0  0  0  0  0
    2.1548   -0.0294    1.7088 H   0  0  0  0  0  0  0  0  0  0  0  0
    1.0145    1.3532    1.8206 H   0  0  0  0  0  0  0  0  0  0  0  0
    1.6648   -1.8556    0.1281 H   0  0  0  0  0  0  0  0  0  0  0  0
   -0.2472   -3.1623   -0.7879 H   0  0  0  0  0  0  0  0  0  0  0  0
   -5.2476   -0.4247    0.0617 H   0  0  0  0  0  0  0  0  0  0  0  0
  1  2  1  0
  2  3  2  0
  2  4  1  0
  4  5  1  0
  5  6  1  0
  6  7  2  0
  7  8  1  0
  8  9  2  0
  9 10  1  0
 10 11  2  0
 10 12  1  0
  9 13  1  0
 13 14  2  0
 13  5  1  0
  1 15  1  0
  1 16  1  0
  4 17  1  0
  4 18  1  0
  6 19  1  0
  7 20  1  0
 12 21  1  0
M  END
$$$$

     RDKit          3D

 21 21  0  0  0  0  0  0  0  0999 V2000
    2.4612    0.8148   -0.8962 N   0  0  0  0  0  0  0  0  0  0  0  0
    2.5725    0.8032    0.5025 C   0  0  0  0  0  0  0  0  0  0  0  0
    3.5698    1.3061    1.0440 O   0  0  0  0  0  0  0  0  0  0  0  0
    1.5322    0.2052    1.3883 C   0  0  0  0  0  0  0  0  0  0  0  0
    0.4258   -0.3447    0.6300 N   0  0  0  0  0  0  0  0  0  0  0  0
    0.4168   -1.6203    0.2066 C   0  0  0  0  0  0  0  0  0  0  0  0
   -0.6372   -2.1436   -0.5156 C   0  0  0  0  0  0  0  0  0  0  0  0
   -1.7064   -1.3896   -0.8265 N   0  0  0  0  0  0  0  0  0  0  0  0
   -1.7162   -0.1147   -0.4132 C   0  0  0  0  0  0  0  0  0  0  0  0
   -2.8703    0.7051   -0.7469 C   0  0  0  0  0  0  0  0  0  0  0  0
   -2.8952    1.9225   -0.3603 O   0  0  0  0  0  0  0  0  0  0  0  0
   -3.9531    0.2556   -1.4600 O   0  0  0  0  0  0  0  0  0  0  0  0
   -0.6694    0.4009    0.3027 C   0  0  0  0  0  0  0  0  0  0  0  0
   -0.6508    1.5991    0.7057 O   0  0  0  0  0  0  0  0  0  0  0  0
    1.9495    1.5743   -1.3712 H   0  0  0  0  0  0  0  0  0  0  0  0
    2.8915    0.0621   -1.4582 H   0  0  0  0  0  0  0  0  0  0  0  0
    2.0039   -0.5611    2.0445 H   0  0  0  0  0  0  0  0  0  0  0  0
    1.1367    1.0011    2.0857 H   0  0  0  0  0  0  0  0  0  0  0  0
    1.2607   -2.2492    0.4409 H   0  0  0  0  0  0  0  0  0  0  0  0
   -0.5876   -3.1672   -0.8257 H   0  0  0  0  0  0  0  0  0  0  0  0
   -4.5343    0.9403   -1.9287 H   0  0  0  0  0  0  0  0  0  0  0  0
  1  2  1  0
  2  3  2  0
  2  4  1  0
  4  5  1  0
  5  6  1  0
  6  7  2  0
  7  8  1  0
  8  9  2  0
  9 10  1  0
 10 11  2  0
 10 12  1  0
  9 13  1  0
 13 14  2  0
 13  5  1  0
  1 15  1  0
  1 16  1  0
  4 17  1  0
  4 18  1  0
  6 19  1  0
  7 20  1  0
 12 21  1  0
M  END
$$$$

     RDKit          3D

 21 21  0  0  0  0  0  0  0  0999 V2000
   -3.2418    1.1070   -0.5910 N   0  0  0  0  0  0  0  0  0  0  0  0
   -2.5745   -0.1357   -0.6022 C   0  0  0  0  0  0  0  0  0  0  0  0
   -2.6897   -0.8474   -1.6306 O   0  0  0  0  0  0  0  0  0  0  0  0
   -1.7679   -0.6003    0.5382 C   0  0  0  0  0  0  0  0  0  0  0  0
   -0.3471   -0.6291    0.3025 N   0  0  0  0  0  0  0  0  0  0  0  0
    0.2287   -1.7817   -0.1649 C   0  0  0  0  0  0  0  0  0  0  0  0
    1.5697   -1.8869   -0.4019 C   0  0  0  0  0  0  0  0  0  0  0  0
    2.3558   -0.8531   -0.1794 N   0  0  0  0  0  0  0  0  0  0  0  0
    1.8304    0.2957    0.2791 C   0  0  0  0  0  0  0  0  0  0  0  0
    2.7313    1.4274    0.5140 C   0  0  0  0  0  0  0  0  0  0  0  0
    2.2500    2.4971    0.9327 O   0  0  0  0  0  0  0  0  0  0  0  0
    4.0846    1.3411    0.2830 O   0  0  0  0  0  0  0  0  0  0  0  0
    0.4795    0.3995    0.5179 C   0  0  0  0  0  0  0  0  0  0  0  0
   -0.0025    1.4821    0.9482 O   0  0  0  0  0  0  0  0  0  0  0  0
   -4.0313    1.2579    0.0596 H   0  0  0  0  0  0  0  0  0  0  0  0
   -2.9439    1.8533   -1.2268 H   0  0  0  0  0  0  0  0  0  0  0  0
   -1.9902   -0.0092    1.4722 H   0  0  0  0  0  0  0  0  0  0  0  0
   -2.0516   -1.6696    0.8000 H   0  0  0  0  0  0  0  0  0  0  0  0
   -0.4670   -2.6074   -0.3371 H   0  0  0  0  0  0  0  0  0  0  0  0
    1.9936   -2.8055   -0.7682 H   0  0  0  0  0  0  0  0  0  0  0  0
    4.5838    2.1648   -0.0967 H   0  0  0  0  0  0  0  0  0  0  0  0
  1  2  1  0
  2  3  2  0
  2  4  1  0
  4  5  1  0
  5  6  1  0
  6  7  2  0
  7  8  1  0
  8  9  2  0
  9 10  1  0
 10 11  2  0
 10 12  1  0
  9 13  1  0
 13 14  2  0
 13  5  1  0
  1 15  1  0
  1 16  1  0
  4 17  1  0
  4 18  1  0
  6 19  1  0
  7 20  1  0
 12 21  1  0
M  END
$$$$
