
     RDKit          3D

 32 32  0  0  0  0  0  0  0  0999 V2000
   -2.5285   -1.1624   -0.1523 C   0  0  0  0  0  0  0  0  0  0  0  0
   -2.3756    0.2454   -0.6989 C   0  0  0  0  0  0  0  0  0  0  0  0
   -3.7314    0.8901   -0.6663 C   0  0  0  0  0  0  0  0  0  0  0  0
   -1.4571    1.0276    0.1174 N   0  0  0  0  0  0  0  0  0  0  0  0
   -1.7195    2.1936    0.6840 N   0  0  0  0  0  0  0  0  0  0  0  0
   -0.6008    2.5695    1.3461 C   0  0  0  0  0  0  0  0  0  0  0  0
    0.3176    1.6051    1.1570 N   0  0  0  0  0  0  0  0  0  0  0  0
   -0.1954    0.6274    0.3898 C   0  0  0  0  0  0  0  0  0  0  0  0
    0.3717   -0.4684   -0.0149 N   0  0  0  0  0  0  0  0  0  0  0  0
    1.7150   -0.7753    0.3437 C   0  0  0  0  0  0  0  0  0  0  0  0
    1.9762   -2.2571    0.0415 C   0  0  0  0  0  0  0  0  0  0  0  0
    3.3618   -2.4886    0.4337 N   0  0  0  0  0  0  0  0  0  0  0  0
    2.7465   -0.0001   -0.4426 C   0  0  0  0  0  0  0  0  0  0  0  0
    2.6268    1.4201   -0.2794 N   0  0  0  0  0  0  0  0  0  0  0  0
   -1.7609   -1.3889    0.6202 H   0  0  0  0  0  0  0  0  0  0  0  0
   -2.4911   -1.9003   -0.9847 H   0  0  0  0  0  0  0  0  0  0  0  0
   -3.5111   -1.3085    0.3427 H   0  0  0  0  0  0  0  0  0  0  0  0
   -1.9503    0.2023   -1.7183 H   0  0  0  0  0  0  0  0  0  0  0  0
   -3.7239    1.9693   -0.8738 H   0  0  0  0  0  0  0  0  0  0  0  0
   -4.2119    0.7256    0.3140 H   0  0  0  0  0  0  0  0  0  0  0  0
   -4.3970    0.3950   -1.4246 H   0  0  0  0  0  0  0  0  0  0  0  0
   -2.6142    2.7508    0.6482 H   0  0  0  0  0  0  0  0  0  0  0  0
   -0.5400    3.4950    1.9030 H   0  0  0  0  0  0  0  0  0  0  0  0
    1.8645   -0.5583    1.4084 H   0  0  0  0  0  0  0  0  0  0  0  0
    1.2736   -2.9036    0.5671 H   0  0  0  0  0  0  0  0  0  0  0  0
    1.8650   -2.4066   -1.0491 H   0  0  0  0  0  0  0  0  0  0  0  0
    3.6509   -3.4685    0.3174 H   0  0  0  0  0  0  0  0  0  0  0  0
    3.4785   -2.0916    1.3734 H   0  0  0  0  0  0  0  0  0  0  0  0
    2.7190   -0.2791   -1.5166 H   0  0  0  0  0  0  0  0  0  0  0  0
    3.7464   -0.3481   -0.0653 H   0  0  0  0  0  0  0  0  0  0  0  0
    3.4367    1.7720    0.2874 H   0  0  0  0  0  0  0  0  0  0  0  0
    2.6584    1.9166   -1.1921 H   0  0  0  0  0  0  0  0  0  0  0  0
  1  2  1  0
  2  3  1  0
  2  4  1  0
  4  5  1  0
  5  6  1  0
  6  7  2  0
  7  8  1  0
  8  9  2  3
  9 10  1  0
 10 11  1  0
 11 12  1  0
 10 13  1  0
 13 14  1  0
  8  4  1  0
  1 15  1  0
  1 16  1  0
  1 17  1  0
  2 18  1  0
  3 19  1  0
  3 20  1  0
  3 21  1  0
  5 22  1  0
  6 23  1  0
 10 24  1  0
 11 25  1  0
 11 26  1  0
 12 27  1  0
 12 28  1  0
 13 29  1  0
 13 30  1  0
 14 31  1  0
 14 32  1  0
M  END
$$$$

     RDKit          3D

 32 32  0  0  0  0  0  0  0  0999 V2000
   -2.3954    0.4903   -1.3727 C   0  0  0  0  0  0  0  0  0  0  0  0
   -2.7467   -0.1162   -0.0343 C   0  0  0  0  0  0  0  0  0  0  0  0
   -2.8568    0.9287    1.0458 C   0  0  0  0  0  0  0  0  0  0  0  0
   -1.7758   -1.1531    0.3133 N   0  0  0  0  0  0  0  0  0  0  0  0
   -2.0850   -2.3642    0.7463 N   0  0  0  0  0  0  0  0  0  0  0  0
   -0.9653   -3.0656    0.9727 C   0  0  0  0  0  0  0  0  0  0  0  0
    0.0648   -2.2391    0.6618 N   0  0  0  0  0  0  0  0  0  0  0  0
   -0.4341   -1.0602    0.2553 C   0  0  0  0  0  0  0  0  0  0  0  0
    0.1734    0.0104   -0.1337 N   0  0  0  0  0  0  0  0  0  0  0  0
    1.6215    0.0980   -0.1918 C   0  0  0  0  0  0  0  0  0  0  0  0
    1.9775    0.8922   -1.4161 C   0  0  0  0  0  0  0  0  0  0  0  0
    3.4144    1.0209   -1.5390 N   0  0  0  0  0  0  0  0  0  0  0  0
    2.0943    0.7368    1.0853 C   0  0  0  0  0  0  0  0  0  0  0  0
    3.4709    0.9080    1.2169 N   0  0  0  0  0  0  0  0  0  0  0  0
   -2.1632   -0.3653   -2.0529 H   0  0  0  0  0  0  0  0  0  0  0  0
   -1.5514    1.1810   -1.3397 H   0  0  0  0  0  0  0  0  0  0  0  0
   -3.2814    1.0309   -1.7783 H   0  0  0  0  0  0  0  0  0  0  0  0
   -3.7480   -0.5812   -0.1493 H   0  0  0  0  0  0  0  0  0  0  0  0
   -2.0372    1.6800    0.9849 H   0  0  0  0  0  0  0  0  0  0  0  0
   -3.8414    1.4387    0.9265 H   0  0  0  0  0  0  0  0  0  0  0  0
   -2.8667    0.4542    2.0323 H   0  0  0  0  0  0  0  0  0  0  0  0
   -3.0462   -2.7374    0.8959 H   0  0  0  0  0  0  0  0  0  0  0  0
   -0.8569   -4.0914    1.3325 H   0  0  0  0  0  0  0  0  0  0  0  0
    2.0047   -0.9155   -0.3084 H   0  0  0  0  0  0  0  0  0  0  0  0
    1.4693    1.8728   -1.4598 H   0  0  0  0  0  0  0  0  0  0  0  0
    1.6318    0.3094   -2.2959 H   0  0  0  0  0  0  0  0  0  0  0  0
    3.6938    1.6942   -2.2574 H   0  0  0  0  0  0  0  0  0  0  0  0
    3.8057    0.0626   -1.6640 H   0  0  0  0  0  0  0  0  0  0  0  0
    1.7087    0.1055    1.9212 H   0  0  0  0  0  0  0  0  0  0  0  0
    1.5791    1.7239    1.2095 H   0  0  0  0  0  0  0  0  0  0  0  0
    3.8310    1.7534    1.6558 H   0  0  0  0  0  0  0  0  0  0  0  0
    4.1104    0.2973    0.7374 H   0  0  0  0  0  0  0  0  0  0  0  0
  1  2  1  0
  2  3  1  0
  2  4  1  0
  4  5  1  0
  5  6  1  0
  6  7  2  0
  7  8  1  0
  8  9  2  3
  9 10  1  0
 10 11  1  0
 11 12  1  0
 10 13  1  0
 13 14  1  0
  8  4  1  0
  1 15  1  0
  1 16  1  0
  1 17  1  0
  2 18  1  0
  3 19  1  0
  3 20  1  0
  3 21  1  0
  5 22  1  0
  6 23  1  0
 10 24  1  0
 11 25  1  0
 11 26  1  0
 12 27  1  0
 12 28  1  0
 13 29  1  0
 13 30  1  0
 14 31  1  0
 14 32  1  0
M  END
$$$$

     RDKit          3D

 32 32  0  0  0  0  0  0  0  0999 V2000
   -3.7976   -0.5785    0.1923 C   0  0  0  0  0  0  0  0  0  0  0  0
   -2.7153    0.3724    0.5872 C   0  0  0  0  0  0  0  0  0  0  0  0
   -1.9629   -0.0387    1.8120 C   0  0  0  0  0  0  0  0  0  0  0  0
   -1.8430    0.6573   -0.5352 N   0  0  0  0  0  0  0  0  0  0  0  0
   -2.2362    1.2112   -1.6653 N   0  0  0  0  0  0  0  0  0  0  0  0
   -1.1459    1.3066   -2.4432 C   0  0  0  0  0  0  0  0  0  0  0  0
   -0.0906    0.8064   -1.7755 N   0  0  0  0  0  0  0  0  0  0  0  0
   -0.5419    0.3929   -0.5565 C   0  0  0  0  0  0  0  0  0  0  0  0
    0.1926   -0.1447    0.3624 N   0  0  0  0  0  0  0  0  0  0  0  0
    1.5972   -0.3527    0.1536 C   0  0  0  0  0  0  0  0  0  0  0  0
    2.4112    0.9032    0.4640 C   0  0  0  0  0  0  0  0  0  0  0  0
    3.7909    0.5939    0.2260 N   0  0  0  0  0  0  0  0  0  0  0  0
    2.1525   -1.4693    1.0115 C   0  0  0  0  0  0  0  0  0  0  0  0
    3.5771   -1.5823    0.7105 N   0  0  0  0  0  0  0  0  0  0  0  0
   -3.7769   -1.5346    0.7376 H   0  0  0  0  0  0  0  0  0  0  0  0
   -4.8275   -0.1318    0.2934 H   0  0  0  0  0  0  0  0  0  0  0  0
   -3.6928   -0.8420   -0.8986 H   0  0  0  0  0  0  0  0  0  0  0  0
   -3.2184    1.3530    0.8322 H   0  0  0  0  0  0  0  0  0  0  0  0
   -1.5319   -1.0487    1.7515 H   0  0  0  0  0  0  0  0  0  0  0  0
   -2.6837   -0.0542    2.6591 H   0  0  0  0  0  0  0  0  0  0  0  0
   -1.2287    0.7525    2.0490 H   0  0  0  0  0  0  0  0  0  0  0  0
   -3.2171    1.5130   -1.8949 H   0  0  0  0  0  0  0  0  0  0  0  0
   -1.1311    1.7202   -3.4423 H   0  0  0  0  0  0  0  0  0  0  0  0
    1.7515   -0.5907   -0.9178 H   0  0  0  0  0  0  0  0  0  0  0  0
    2.2981    1.1945    1.5286 H   0  0  0  0  0  0  0  0  0  0  0  0
    2.0451    1.7564   -0.1398 H   0  0  0  0  0  0  0  0  0  0  0  0
    4.4062    0.6674    1.0446 H   0  0  0  0  0  0  0  0  0  0  0  0
    4.1624    1.0183   -0.6458 H   0  0  0  0  0  0  0  0  0  0  0  0
    2.0921   -1.2139    2.0893 H   0  0  0  0  0  0  0  0  0  0  0  0
    1.6250   -2.4187    0.8696 H   0  0  0  0  0  0  0  0  0  0  0  0
    3.6320   -1.7356   -0.3391 H   0  0  0  0  0  0  0  0  0  0  0  0
    3.9075   -2.4827    1.1306 H   0  0  0  0  0  0  0  0  0  0  0  0
  1  2  1  0
  2  3  1  0
  2  4  1  0
  4  5  1  0
  5  6  1  0
  6  7  2  0
  7  8  1  0
  8  9  2  3
  9 10  1  0
 10 11  1  0
 11 12  1  0
 10 13  1  0
 13 14  1  0
  8  4  1  0
  1 15  1  0
  1 16  1  0
  1 17  1  0
  2 18  1  0
  3 19  1  0
  3 20  1  0
  3 21  1  0
  5 22  1  0
  6 23  1  0
 10 24  1  0
 11 25  1  0
 11 26  1  0
 12 27  1  0
 12 28  1  0
 13 29  1  0
 13 30  1  0
 14 31  1  0
 14 32  1  0
M  END
$$$$

     RDKit          3D

 32 32  0  0  0  0  0  0  0  0999 V2000
   -3.2720    1.0267    0.5548 C   0  0  0  0  0  0  0  0  0  0  0  0
   -2.1529   -0.0110    0.6962 C   0  0  0  0  0  0  0  0  0  0  0  0
   -2.8353   -1.3279    0.9984 C   0  0  0  0  0  0  0  0  0  0  0  0
   -1.4431   -0.1411   -0.5679 N   0  0  0  0  0  0  0  0  0  0  0  0
   -1.9988   -0.4220   -1.7365 N   0  0  0  0  0  0  0  0  0  0  0  0
   -1.0390   -0.4606   -2.6713 C   0  0  0  0  0  0  0  0  0  0  0  0
    0.1263   -0.1972   -2.0563 N   0  0  0  0  0  0  0  0  0  0  0  0
   -0.1140    0.0063   -0.7292 C   0  0  0  0  0  0  0  0  0  0  0  0
    0.7326    0.2839    0.2042 N   0  0  0  0  0  0  0  0  0  0  0  0
    2.1272    0.4012   -0.1760 C   0  0  0  0  0  0  0  0  0  0  0  0
    2.8989    1.2634    0.7970 C   0  0  0  0  0  0  0  0  0  0  0  0
    2.3333    2.5983    0.8423 N   0  0  0  0  0  0  0  0  0  0  0  0
    2.7018   -0.9801   -0.2952 C   0  0  0  0  0  0  0  0  0  0  0  0
    2.6031   -1.6963    0.9806 N   0  0  0  0  0  0  0  0  0  0  0  0
   -3.6791    1.2724    1.5351 H   0  0  0  0  0  0  0  0  0  0  0  0
   -2.9435    1.8953   -0.0407 H   0  0  0  0  0  0  0  0  0  0  0  0
   -4.0928    0.5411   -0.0412 H   0  0  0  0  0  0  0  0  0  0  0  0
   -1.4856    0.3238    1.4897 H   0  0  0  0  0  0  0  0  0  0  0  0
   -2.2042   -2.0151    1.5739 H   0  0  0  0  0  0  0  0  0  0  0  0
   -3.8267   -1.1640    1.4840 H   0  0  0  0  0  0  0  0  0  0  0  0
   -3.0567   -1.8088    0.0138 H   0  0  0  0  0  0  0  0  0  0  0  0
   -3.0324   -0.5856   -1.8870 H   0  0  0  0  0  0  0  0  0  0  0  0
   -1.1232   -0.6589   -3.7265 H   0  0  0  0  0  0  0  0  0  0  0  0
    2.2147    0.8806   -1.1750 H   0  0  0  0  0  0  0  0  0  0  0  0
    2.9070    0.8215    1.8010 H   0  0  0  0  0  0  0  0  0  0  0  0
    3.9297    1.3696    0.4131 H   0  0  0  0  0  0  0  0  0  0  0  0
    1.3423    2.6007    1.1209 H   0  0  0  0  0  0  0  0  0  0  0  0
    2.5002    3.1107   -0.0514 H   0  0  0  0  0  0  0  0  0  0  0  0
    3.7769   -0.9805   -0.5547 H   0  0  0  0  0  0  0  0  0  0  0  0
    2.1349   -1.5521   -1.0574 H   0  0  0  0  0  0  0  0  0  0  0  0
    3.5272   -1.6735    1.4882 H   0  0  0  0  0  0  0  0  0  0  0  0
    2.4431   -2.7208    0.7733 H   0  0  0  0  0  0  0  0  0  0  0  0
  1  2  1  0
  2  3  1  0
  2  4  1  0
  4  5  1  0
  5  6  1  0
  6  7  2  0
  7  8  1  0
  8  9  2  3
  9 10  1  0
 10 11  1  0
 11 12  1  0
 10 13  1  0
 13 14  1  0
  8  4  1  0
  1 15  1  0
  1 16  1  0
  1 17  1  0
  2 18  1  0
  3 19  1  0
  3 20  1  0
  3 21  1  0
  5 22  1  0
  6 23  1  0
 10 24  1  0
 11 25  1  0
 11 26  1  0
 12 27  1  0
 12 28  1  0
 13 29  1  0
 13 30  1  0
 14 31  1  0
 14 32  1  0
M  END
$$$$

     RDKit          3D

 32 32  0  0  0  0  0  0  0  0999 V2000
    3.7853    0.1019   -0.7544 C   0  0  0  0  0  0  0  0  0  0  0  0
    2.5453   -0.3492    0.0311 C   0  0  0  0  0  0  0  0  0  0  0  0
    2.9919   -1.0273    1.2833 C   0  0  0  0  0  0  0  0  0  0  0  0
    1.6421    0.7464    0.2435 N   0  0  0  0  0  0  0  0  0  0  0  0
    1.9638    1.9675    0.6323 N   0  0  0  0  0  0  0  0  0  0  0  0
    0.8565    2.7361    0.7270 C   0  0  0  0  0  0  0  0  0  0  0  0
   -0.1756    1.9747    0.3893 N   0  0  0  0  0  0  0  0  0  0  0  0
    0.3072    0.7487    0.0912 C   0  0  0  0  0  0  0  0  0  0  0  0
   -0.4015   -0.2719   -0.2841 N   0  0  0  0  0  0  0  0  0  0  0  0
   -1.8500   -0.1345   -0.4105 C   0  0  0  0  0  0  0  0  0  0  0  0
   -2.5388   -1.1097    0.5129 C   0  0  0  0  0  0  0  0  0  0  0  0
   -3.9748   -1.0194    0.4384 N   0  0  0  0  0  0  0  0  0  0  0  0
   -2.2270   -0.4272   -1.8649 C   0  0  0  0  0  0  0  0  0  0  0  0
   -3.6441   -0.3051   -2.0601 N   0  0  0  0  0  0  0  0  0  0  0  0
    4.5115    0.4755    0.0064 H   0  0  0  0  0  0  0  0  0  0  0  0
    3.4655    0.8948   -1.4519 H   0  0  0  0  0  0  0  0  0  0  0  0
    4.2261   -0.7702   -1.2450 H   0  0  0  0  0  0  0  0  0  0  0  0
    2.0768   -1.1376   -0.6230 H   0  0  0  0  0  0  0  0  0  0  0  0
    4.0188   -1.4209    1.1322 H   0  0  0  0  0  0  0  0  0  0  0  0
    3.0491   -0.3537    2.1620 H   0  0  0  0  0  0  0  0  0  0  0  0
    2.3681   -1.9362    1.5226 H   0  0  0  0  0  0  0  0  0  0  0  0
    2.9358    2.2820    0.8343 H   0  0  0  0  0  0  0  0  0  0  0  0
    0.7751    3.7750    1.0172 H   0  0  0  0  0  0  0  0  0  0  0  0
   -2.1476    0.8897   -0.1128 H   0  0  0  0  0  0  0  0  0  0  0  0
   -2.2280   -2.1542    0.2704 H   0  0  0  0  0  0  0  0  0  0  0  0
   -2.1767   -0.9227    1.5522 H   0  0  0  0  0  0  0  0  0  0  0  0
   -4.3064   -0.0635    0.1974 H   0  0  0  0  0  0  0  0  0  0  0  0
   -4.3417   -1.6708   -0.2596 H   0  0  0  0  0  0  0  0  0  0  0  0
   -1.9217   -1.4881   -2.0633 H   0  0  0  0  0  0  0  0  0  0  0  0
   -1.6459    0.1891   -2.5598 H   0  0  0  0  0  0  0  0  0  0  0  0
   -4.0068   -0.9042   -2.8352 H   0  0  0  0  0  0  0  0  0  0  0  0
   -3.9325    0.6853   -2.1957 H   0  0  0  0  0  0  0  0  0  0  0  0
  1  2  1  0
  2  3  1  0
  2  4  1  0
  4  5  1  0
  5  6  1  0
  6  7  2  0
  7  8  1  0
  8  9  2  3
  9 10  1  0
 10 11  1  0
 11 12  1  0
 10 13  1  0
 13 14  1  0
  8  4  1  0
  1 15  1  0
  1 16  1  0
  1 17  1  0
  2 18  1  0
  3 19  1  0
  3 20  1  0
  3 21  1  0
  5 22  1  0
  6 23  1  0
 10 24  1  0
 11 25  1  0
 11 26  1  0
 12 27  1  0
 12 28  1  0
 13 29  1  0
 13 30  1  0
 14 31  1  0
 14 32  1  0
M  END
$$$$

     RDKit          3D

 32 32  0  0  0  0  0  0  0  0999 V2000
    3.1064   -0.9068    1.2164 C   0  0  0  0  0  0  0  0  0  0  0  0
    2.2104   -0.6565    0.0033 C   0  0  0  0  0  0  0  0  0  0  0  0
    3.1232   -0.2999   -1.1445 C   0  0  0  0  0  0  0  0  0  0  0  0
    1.3648    0.4983    0.3166 N   0  0  0  0  0  0  0  0  0  0  0  0
    1.8644    1.6544    0.6994 N   0  0  0  0  0  0  0  0  0  0  0  0
    0.8202    2.4786    0.9003 C   0  0  0  0  0  0  0  0  0  0  0  0
   -0.3156    1.8174    0.6376 N   0  0  0  0  0  0  0  0  0  0  0  0
    0.0268    0.5822    0.2737 C   0  0  0  0  0  0  0  0  0  0  0  0
   -0.6986   -0.4215   -0.0737 N   0  0  0  0  0  0  0  0  0  0  0  0
   -2.1176   -0.4435   -0.1534 C   0  0  0  0  0  0  0  0  0  0  0  0
   -2.7560    0.9308   -0.1148 C   0  0  0  0  0  0  0  0  0  0  0  0
   -2.3229    1.7660   -1.1977 N   0  0  0  0  0  0  0  0  0  0  0  0
   -2.6487   -1.2927    0.9846 C   0  0  0  0  0  0  0  0  0  0  0  0
   -2.1577   -2.6459    0.9166 N   0  0  0  0  0  0  0  0  0  0  0  0
    2.5270   -1.2117    2.0895 H   0  0  0  0  0  0  0  0  0  0  0  0
    3.9382   -1.5945    0.9587 H   0  0  0  0  0  0  0  0  0  0  0  0
    3.5862    0.0847    1.4633 H   0  0  0  0  0  0  0  0  0  0  0  0
    1.6022   -1.5519   -0.1806 H   0  0  0  0  0  0  0  0  0  0  0  0
    3.4451    0.7548   -1.0393 H   0  0  0  0  0  0  0  0  0  0  0  0
    2.6586   -0.4636   -2.1363 H   0  0  0  0  0  0  0  0  0  0  0  0
    4.0372   -0.9521   -1.0395 H   0  0  0  0  0  0  0  0  0  0  0  0
    2.8768    1.9304    0.8367 H   0  0  0  0  0  0  0  0  0  0  0  0
    0.8649    3.5281    1.2268 H   0  0  0  0  0  0  0  0  0  0  0  0
   -2.4970   -0.9361   -1.0944 H   0  0  0  0  0  0  0  0  0  0  0  0
   -2.6468    1.4093    0.8879 H   0  0  0  0  0  0  0  0  0  0  0  0
   -3.8585    0.7653   -0.2327 H   0  0  0  0  0  0  0  0  0  0  0  0
   -1.7714    1.2780   -1.9236 H   0  0  0  0  0  0  0  0  0  0  0  0
   -3.1369    2.2171   -1.6764 H   0  0  0  0  0  0  0  0  0  0  0  0
   -2.3109   -0.7921    1.9341 H   0  0  0  0  0  0  0  0  0  0  0  0
   -3.7637   -1.2442    1.0005 H   0  0  0  0  0  0  0  0  0  0  0  0
   -2.7315   -3.1936    0.2383 H   0  0  0  0  0  0  0  0  0  0  0  0
   -2.3186   -3.0890    1.8500 H   0  0  0  0  0  0  0  0  0  0  0  0
  1  2  1  0
  2  3  1  0
  2  4  1  0
  4  5  1  0
  5  6  1  0
  6  7  2  0
  7  8  1  0
  8  9  2  3
  9 10  1  0
 10 11  1  0
 11 12  1  0
 10 13  1  0
 13 14  1  0
  8  4  1  0
  1 15  1  0
  1 16  1  0
  1 17  1  0
  2 18  1  0
  3 19  1  0
  3 20  1  0
  3 21  1  0
  5 22  1  0
  6 23  1  0
 10 24  1  0
 11 25  1  0
 11 26  1  0
 12 27  1  0
 12 28  1  0
 13 29  1  0
 13 30  1  0
 14 31  1  0
 14 32  1  0
M  END
$$$$

     RDKit          3D

 32 32  0  0  0  0  0  0  0  0999 V2000
    3.4666   -0.2804   -0.6006 C   0  0  0  0  0  0  0  0  0  0  0  0
    1.9567    0.0116   -0.4636 C   0  0  0  0  0  0  0  0  0  0  0  0
    1.8303    1.4060    0.0403 C   0  0  0  0  0  0  0  0  0  0  0  0
    1.3954   -1.0012    0.4050 N   0  0  0  0  0  0  0  0  0  0  0  0
    2.1600   -1.8653    1.0694 N   0  0  0  0  0  0  0  0  0  0  0  0
    1.3187   -2.6417    1.7577 C   0  0  0  0  0  0  0  0  0  0  0  0
    0.0637   -2.2841    1.5389 N   0  0  0  0  0  0  0  0  0  0  0  0
    0.1032   -1.2036    0.6488 C   0  0  0  0  0  0  0  0  0  0  0  0
   -0.9744   -0.6897    0.2991 N   0  0  0  0  0  0  0  0  0  0  0  0
   -1.3664    0.3486   -0.5172 C   0  0  0  0  0  0  0  0  0  0  0  0
   -1.7285    1.6324    0.2262 C   0  0  0  0  0  0  0  0  0  0  0  0
   -2.8178    1.4392    1.1458 N   0  0  0  0  0  0  0  0  0  0  0  0
   -2.5556   -0.0444   -1.4228 C   0  0  0  0  0  0  0  0  0  0  0  0
   -3.6907   -0.4253   -0.6308 N   0  0  0  0  0  0  0  0  0  0  0  0
    3.6654   -1.3340   -0.7942 H   0  0  0  0  0  0  0  0  0  0  0  0
    3.8769    0.3307   -1.4491 H   0  0  0  0  0  0  0  0  0  0  0  0
    3.9243    0.1344    0.3187 H   0  0  0  0  0  0  0  0  0  0  0  0
    1.5155   -0.0797   -1.4957 H   0  0  0  0  0  0  0  0  0  0  0  0
    1.2324    2.0645   -0.6241 H   0  0  0  0  0  0  0  0  0  0  0  0
    2.8318    1.8699    0.0972 H   0  0  0  0  0  0  0  0  0  0  0  0
    1.4414    1.4185    1.0844 H   0  0  0  0  0  0  0  0  0  0  0  0
    3.2073   -1.9609    1.0862 H   0  0  0  0  0  0  0  0  0  0  0  0
    1.6243   -3.4551    2.4078 H   0  0  0  0  0  0  0  0  0  0  0  0
   -0.5924    0.6467   -1.2387 H   0  0  0  0  0  0  0  0  0  0  0  0
   -0.8708    1.9959    0.8200 H   0  0  0  0  0  0  0  0  0  0  0  0
   -2.0077    2.4425   -0.4754 H   0  0  0  0  0  0  0  0  0  0  0  0
   -3.7335    1.7318    0.8036 H   0  0  0  0  0  0  0  0  0  0  0  0
   -2.5976    1.7013    2.1179 H   0  0  0  0  0  0  0  0  0  0  0  0
   -2.1877   -0.9121   -2.0096 H   0  0  0  0  0  0  0  0  0  0  0  0
   -2.7716    0.8381   -2.0379 H   0  0  0  0  0  0  0  0  0  0  0  0
   -4.3101   -1.1166   -1.0950 H   0  0  0  0  0  0  0  0  0  0  0  0
   -3.4090   -0.7181    0.3342 H   0  0  0  0  0  0  0  0  0  0  0  0
  1  2  1  0
  2  3  1  0
  2  4  1  0
  4  5  1  0
  5  6  1  0
  6  7  2  0
  7  8  1  0
  8  9  2  3
  9 10  1  0
 10 11  1  0
 11 12  1  0
 10 13  1  0
 13 14  1  0
  8  4  1  0
  1 15  1  0
  1 16  1  0
  1 17  1  0
  2 18  1  0
  3 19  1  0
  3 20  1  0
  3 21  1  0
  5 22  1  0
  6 23  1  0
 10 24  1  0
 11 25  1  0
 11 26  1  0
 12 27  1  0
 12 28  1  0
 13 29  1  0
 13 30  1  0
 14 31  1  0
 14 32  1  0
M  END
$$$$

     RDKit          3D

 32 32  0  0  0  0  0  0  0  0999 V2000
   -1.6004   -0.0124    1.9956 C   0  0  0  0  0  0  0  0  0  0  0  0
   -1.7062    0.2360    0.5230 C   0  0  0  0  0  0  0  0  0  0  0  0
   -3.1913    0.5073    0.1938 C   0  0  0  0  0  0  0  0  0  0  0  0
   -1.3027   -0.9419   -0.2512 N   0  0  0  0  0  0  0  0  0  0  0  0
   -2.1733   -1.8675   -0.6545 N   0  0  0  0  0  0  0  0  0  0  0  0
   -1.5613   -2.8354   -1.3385 C   0  0  0  0  0  0  0  0  0  0  0  0
   -0.2790   -2.5036   -1.3611 N   0  0  0  0  0  0  0  0  0  0  0  0
   -0.1004   -1.3221   -0.6855 C   0  0  0  0  0  0  0  0  0  0  0  0
    1.0235   -0.7620   -0.5420 N   0  0  0  0  0  0  0  0  0  0  0  0
    1.4929    0.3930    0.0710 C   0  0  0  0  0  0  0  0  0  0  0  0
    1.4218    1.5624   -0.9218 C   0  0  0  0  0  0  0  0  0  0  0  0
    1.9066    2.7591   -0.2797 N   0  0  0  0  0  0  0  0  0  0  0  0
    3.0146    0.2991    0.3807 C   0  0  0  0  0  0  0  0  0  0  0  0
    3.3030   -0.7864    1.2482 N   0  0  0  0  0  0  0  0  0  0  0  0
   -2.5762   -0.3962    2.3527 H   0  0  0  0  0  0  0  0  0  0  0  0
   -0.8258   -0.8030    2.2081 H   0  0  0  0  0  0  0  0  0  0  0  0
   -1.2911    0.9217    2.5304 H   0  0  0  0  0  0  0  0  0  0  0  0
   -1.1973    1.1520    0.2562 H   0  0  0  0  0  0  0  0  0  0  0  0
   -3.4655    1.4871    0.6357 H   0  0  0  0  0  0  0  0  0  0  0  0
   -3.3633    0.4995   -0.8924 H   0  0  0  0  0  0  0  0  0  0  0  0
   -3.7967   -0.2851    0.6466 H   0  0  0  0  0  0  0  0  0  0  0  0
   -3.2154   -1.8811   -0.4830 H   0  0  0  0  0  0  0  0  0  0  0  0
   -2.0504   -3.7188   -1.7824 H   0  0  0  0  0  0  0  0  0  0  0  0
    0.9697    0.7165    0.9816 H   0  0  0  0  0  0  0  0  0  0  0  0
    0.4412    1.7054   -1.3617 H   0  0  0  0  0  0  0  0  0  0  0  0
    2.2042    1.2974   -1.6932 H   0  0  0  0  0  0  0  0  0  0  0  0
    1.8723    2.7256    0.7479 H   0  0  0  0  0  0  0  0  0  0  0  0
    2.8265    3.0821   -0.6230 H   0  0  0  0  0  0  0  0  0  0  0  0
    3.3346    1.2500    0.8396 H   0  0  0  0  0  0  0  0  0  0  0  0
    3.5724    0.1669   -0.5656 H   0  0  0  0  0  0  0  0  0  0  0  0
    3.7617   -1.6026    0.7962 H   0  0  0  0  0  0  0  0  0  0  0  0
    2.5512   -1.0428    1.9106 H   0  0  0  0  0  0  0  0  0  0  0  0
  1  2  1  0
  2  3  1  0
  2  4  1  0
  4  5  1  0
  5  6  1  0
  6  7  2  0
  7  8  1  0
  8  9  2  3
  9 10  1  0
 10 11  1  0
 11 12  1  0
 10 13  1  0
 13 14  1  0
  8  4  1  0
  1 15  1  0
  1 16  1  0
  1 17  1  0
  2 18  1  0
  3 19  1  0
  3 20  1  0
  3 21  1  0
  5 22  1  0
  6 23  1  0
 10 24  1  0
 11 25  1  0
 11 26  1  0
 12 27  1  0
 12 28  1  0
 13 29  1  0
 13 30  1  0
 14 31  1  0
 14 32  1  0
M  END
$$$$
