
     RDKit          3D

 25 26  0  0  0  0  0  0  0  0999 V2000
   -4.6032    0.2968    0.1181 C   0  0  0  0  0  0  0  0  0  0  0  0
   -3.3605    0.5674   -0.5071 O   0  0  0  0  0  0  0  0  0  0  0  0
   -2.2698   -0.2857   -0.4023 C   0  0  0  0  0  0  0  0  0  0  0  0
   -2.4222   -1.3332    0.2823 O   0  0  0  0  0  0  0  0  0  0  0  0
   -0.9623   -0.0193   -1.0491 C   0  0  0  0  0  0  0  0  0  0  0  0
   -0.2820    1.2601   -0.6196 C   0  0  0  0  0  0  0  0  0  0  0  0
    0.8936    0.5230   -0.2355 N   0  0  0  0  0  0  0  0  0  0  0  0
    2.2437    0.7988    0.1137 C   0  0  0  0  0  0  0  0  0  0  0  0
    2.8146    2.0280    0.1704 N   0  0  0  0  0  0  0  0  0  0  0  0
    4.0779    1.8786    0.5305 N   0  0  0  0  0  0  0  0  0  0  0  0
    4.3432    0.6164    0.7068 N   0  0  0  0  0  0  0  0  0  0  0  0
    3.2212   -0.0581    0.4530 N   0  0  0  0  0  0  0  0  0  0  0  0
    3.0643   -1.5050    0.5281 C   0  0  0  0  0  0  0  0  0  0  0  0
    0.1617   -0.7328   -0.3343 C   0  0  0  0  0  0  0  0  0  0  0  0
   -5.0156   -0.6898   -0.2101 H   0  0  0  0  0  0  0  0  0  0  0  0
   -4.4425    0.2595    1.1995 H   0  0  0  0  0  0  0  0  0  0  0  0
   -5.3256    1.0613   -0.2108 H   0  0  0  0  0  0  0  0  0  0  0  0
   -0.9546   -0.1302   -2.1575 H   0  0  0  0  0  0  0  0  0  0  0  0
   -0.0473    1.9598   -1.4439 H   0  0  0  0  0  0  0  0  0  0  0  0
   -0.7998    1.7912    0.2059 H   0  0  0  0  0  0  0  0  0  0  0  0
    2.2399   -1.7765    1.2093 H   0  0  0  0  0  0  0  0  0  0  0  0
    2.9424   -1.9617   -0.4838 H   0  0  0  0  0  0  0  0  0  0  0  0
    3.9917   -1.9460    0.9484 H   0  0  0  0  0  0  0  0  0  0  0  0
    0.6281   -1.4787   -1.0045 H   0  0  0  0  0  0  0  0  0  0  0  0
   -0.1371   -1.1239    0.6744 H   0  0  0  0  0  0  0  0  0  0  0  0
  1  2  1  0
  2  3  1  0
  3  4  2  0
  3  5  1  0
  5  6  1  0
  6  7  1  0
  7  8  1  0
  8  9  2  0
  9 10  1  0
 10 11  2  0
 11 12  1  0
 12 13  1  0
  7 14  1  0
 14  5  1  0
 12  8  1  0
  1 15  1  0
  1 16  1  0
  1 17  1  0
  5 18  1  0
  6 19  1  0
  6 20  1  0
 13 21  1  0
 13 22  1  0
 13 23  1  0
 14 24  1  0
 14 25  1  0
M  END
$$$$

     RDKit          3D

 25 26  0  0  0  0  0  0  0  0999 V2000
   -4.5335    0.4759    0.0873 C   0  0  0  0  0  0  0  0  0  0  0  0
   -3.2409    0.1752   -0.3829 O   0  0  0  0  0  0  0  0  0  0  0  0
   -2.2998   -0.5329    0.3468 C   0  0  0  0  0  0  0  0  0  0  0  0
   -2.6283   -0.9252    1.4934 O   0  0  0  0  0  0  0  0  0  0  0  0
   -0.9734   -0.7883   -0.2522 C   0  0  0  0  0  0  0  0  0  0  0  0
   -0.0002   -1.5533    0.5738 C   0  0  0  0  0  0  0  0  0  0  0  0
    1.0122   -0.5967    0.1597 N   0  0  0  0  0  0  0  0  0  0  0  0
    2.4156   -0.6070   -0.0566 C   0  0  0  0  0  0  0  0  0  0  0  0
    3.2270   -1.6676    0.1008 N   0  0  0  0  0  0  0  0  0  0  0  0
    4.4822   -1.3179   -0.1886 N   0  0  0  0  0  0  0  0  0  0  0  0
    4.4344   -0.0455   -0.5219 N   0  0  0  0  0  0  0  0  0  0  0  0
    3.1766    0.4029   -0.4457 N   0  0  0  0  0  0  0  0  0  0  0  0
    2.7649    1.7541   -0.7433 C   0  0  0  0  0  0  0  0  0  0  0  0
   -0.0549    0.3778    0.0651 C   0  0  0  0  0  0  0  0  0  0  0  0
   -4.6514    0.1261    1.1395 H   0  0  0  0  0  0  0  0  0  0  0  0
   -5.3336    0.0612   -0.5309 H   0  0  0  0  0  0  0  0  0  0  0  0
   -4.6234    1.5820    0.1293 H   0  0  0  0  0  0  0  0  0  0  0  0
   -0.9856   -1.0916   -1.3102 H   0  0  0  0  0  0  0  0  0  0  0  0
   -0.1530   -1.4778    1.6662 H   0  0  0  0  0  0  0  0  0  0  0  0
    0.1815   -2.5982    0.2412 H   0  0  0  0  0  0  0  0  0  0  0  0
    2.2851    2.1656    0.1449 H   0  0  0  0  0  0  0  0  0  0  0  0
    2.1487    1.8039   -1.6628 H   0  0  0  0  0  0  0  0  0  0  0  0
    3.6602    2.3970   -0.9506 H   0  0  0  0  0  0  0  0  0  0  0  0
   -0.0170    1.0524   -0.8048 H   0  0  0  0  0  0  0  0  0  0  0  0
   -0.2934    0.8279    1.0365 H   0  0  0  0  0  0  0  0  0  0  0  0
  1  2  1  0
  2  3  1  0
  3  4  2  0
  3  5  1  0
  5  6  1  0
  6  7  1  0
  7  8  1  0
  8  9  2  0
  9 10  1  0
 10 11  2  0
 11 12  1  0
 12 13  1  0
  7 14  1  0
 14  5  1  0
 12  8  1  0
  1 15  1  0
  1 16  1  0
  1 17  1  0
  5 18  1  0
  6 19  1  0
  6 20  1  0
 13 21  1  0
 13 22  1  0
 13 23  1  0
 14 24  1  0
 14 25  1  0
M  END
$$$$

     RDKit          3D

 25 26  0  0  0  0  0  0  0  0999 V2000
    4.3314    0.9208    0.4847 C   0  0  0  0  0  0  0  0  0  0  0  0
    3.1056    0.6122   -0.1035 O   0  0  0  0  0  0  0  0  0  0  0  0
    2.4039   -0.5266    0.2460 C   0  0  0  0  0  0  0  0  0  0  0  0
    2.9439   -1.2668    1.1384 O   0  0  0  0  0  0  0  0  0  0  0  0
    1.1228   -0.9641   -0.2995 C   0  0  0  0  0  0  0  0  0  0  0  0
    0.0720   -1.1176    0.8033 C   0  0  0  0  0  0  0  0  0  0  0  0
   -0.9244   -0.6224   -0.1143 N   0  0  0  0  0  0  0  0  0  0  0  0
   -2.3103   -0.7980   -0.2960 C   0  0  0  0  0  0  0  0  0  0  0  0
   -3.0448   -1.8938   -0.4636 N   0  0  0  0  0  0  0  0  0  0  0  0
   -4.2997   -1.6871   -0.6076 N   0  0  0  0  0  0  0  0  0  0  0  0
   -4.4659   -0.3582   -0.5431 N   0  0  0  0  0  0  0  0  0  0  0  0
   -3.2697    0.2069   -0.3546 N   0  0  0  0  0  0  0  0  0  0  0  0
   -2.9245    1.6044   -0.2283 C   0  0  0  0  0  0  0  0  0  0  0  0
    0.1609    0.1224   -0.7560 C   0  0  0  0  0  0  0  0  0  0  0  0
    5.1294    0.9950   -0.2898 H   0  0  0  0  0  0  0  0  0  0  0  0
    4.6064    0.0921    1.1770 H   0  0  0  0  0  0  0  0  0  0  0  0
    4.2702    1.8489    1.0870 H   0  0  0  0  0  0  0  0  0  0  0  0
    1.1396   -1.8005   -1.0177 H   0  0  0  0  0  0  0  0  0  0  0  0
   -0.0177   -2.1359    1.1680 H   0  0  0  0  0  0  0  0  0  0  0  0
    0.2807   -0.4006    1.6314 H   0  0  0  0  0  0  0  0  0  0  0  0
   -1.9762    1.7375    0.3495 H   0  0  0  0  0  0  0  0  0  0  0  0
   -2.9194    2.1470   -1.1993 H   0  0  0  0  0  0  0  0  0  0  0  0
   -3.7334    2.0730    0.4035 H   0  0  0  0  0  0  0  0  0  0  0  0
    0.3306    1.1265   -0.3725 H   0  0  0  0  0  0  0  0  0  0  0  0
   -0.0114    0.0848   -1.8430 H   0  0  0  0  0  0  0  0  0  0  0  0
  1  2  1  0
  2  3  1  0
  3  4  2  0
  3  5  1  0
  5  6  1  0
  6  7  1  0
  7  8  1  0
  8  9  2  0
  9 10  1  0
 10 11  2  0
 11 12  1  0
 12 13  1  0
  7 14  1  0
 14  5  1  0
 12  8  1  0
  1 15  1  0
  1 16  1  0
  1 17  1  0
  5 18  1  0
  6 19  1  0
  6 20  1  0
 13 21  1  0
 13 22  1  0
 13 23  1  0
 14 24  1  0
 14 25  1  0
M  END
$$$$

     RDKit          3D

 25 26  0  0  0  0  0  0  0  0999 V2000
    4.2378    1.0296    0.0596 C   0  0  0  0  0  0  0  0  0  0  0  0
    3.1256    0.2497   -0.2753 O   0  0  0  0  0  0  0  0  0  0  0  0
    2.2511   -0.3096    0.6460 C   0  0  0  0  0  0  0  0  0  0  0  0
    2.5189   -0.0706    1.8475 O   0  0  0  0  0  0  0  0  0  0  0  0
    1.1407   -1.0968    0.1232 C   0  0  0  0  0  0  0  0  0  0  0  0
    0.2987   -0.1973   -0.7815 C   0  0  0  0  0  0  0  0  0  0  0  0
   -0.9213   -0.7224   -0.1983 N   0  0  0  0  0  0  0  0  0  0  0  0
   -2.2675   -0.7441   -0.6141 C   0  0  0  0  0  0  0  0  0  0  0  0
   -2.8592   -1.7095   -1.3091 N   0  0  0  0  0  0  0  0  0  0  0  0
   -4.1326   -1.3895   -1.5216 N   0  0  0  0  0  0  0  0  0  0  0  0
   -4.3228   -0.1990   -0.9424 N   0  0  0  0  0  0  0  0  0  0  0  0
   -3.1828    0.2039   -0.3831 N   0  0  0  0  0  0  0  0  0  0  0  0
   -2.8979    1.4215    0.3512 C   0  0  0  0  0  0  0  0  0  0  0  0
   -0.1085   -1.1740    0.9291 C   0  0  0  0  0  0  0  0  0  0  0  0
    5.0132    0.5114    0.6494 H   0  0  0  0  0  0  0  0  0  0  0  0
    3.9694    2.0199    0.4969 H   0  0  0  0  0  0  0  0  0  0  0  0
    4.7373    1.2893   -0.9217 H   0  0  0  0  0  0  0  0  0  0  0  0
    1.4321   -2.0465   -0.3555 H   0  0  0  0  0  0  0  0  0  0  0  0
    0.4474   -0.3623   -1.8497 H   0  0  0  0  0  0  0  0  0  0  0  0
    0.3725    0.8821   -0.5387 H   0  0  0  0  0  0  0  0  0  0  0  0
   -3.6627    2.1967    0.1668 H   0  0  0  0  0  0  0  0  0  0  0  0
   -1.9088    1.8067   -0.0101 H   0  0  0  0  0  0  0  0  0  0  0  0
   -2.7466    1.1856    1.4215 H   0  0  0  0  0  0  0  0  0  0  0  0
   -0.1937   -0.5353    1.8151 H   0  0  0  0  0  0  0  0  0  0  0  0
   -0.3403   -2.2396    1.1949 H   0  0  0  0  0  0  0  0  0  0  0  0
  1  2  1  0
  2  3  1  0
  3  4  2  0
  3  5  1  0
  5  6  1  0
  6  7  1  0
  7  8  1  0
  8  9  2  0
  9 10  1  0
 10 11  2  0
 11 12  1  0
 12 13  1  0
  7 14  1  0
 14  5  1  0
 12  8  1  0
  1 15  1  0
  1 16  1  0
  1 17  1  0
  5 18  1  0
  6 19  1  0
  6 20  1  0
 13 21  1  0
 13 22  1  0
 13 23  1  0
 14 24  1  0
 14 25  1  0
M  END
$$$$

     RDKit          3D

 25 26  0  0  0  0  0  0  0  0999 V2000
    4.7190   -0.7785    0.1045 C   0  0  0  0  0  0  0  0  0  0  0  0
    3.5321   -0.0879    0.3622 O   0  0  0  0  0  0  0  0  0  0  0  0
    2.3723   -0.1581   -0.3596 C   0  0  0  0  0  0  0  0  0  0  0  0
    2.3573   -0.9190   -1.3607 O   0  0  0  0  0  0  0  0  0  0  0  0
    1.1604    0.5948   -0.0343 C   0  0  0  0  0  0  0  0  0  0  0  0
    0.0165    0.3581   -1.0032 C   0  0  0  0  0  0  0  0  0  0  0  0
   -0.8564    0.4897    0.1446 N   0  0  0  0  0  0  0  0  0  0  0  0
   -2.1557    1.0033    0.3538 C   0  0  0  0  0  0  0  0  0  0  0  0
   -2.4226    2.2819    0.7214 N   0  0  0  0  0  0  0  0  0  0  0  0
   -3.7304    2.4642    0.8365 N   0  0  0  0  0  0  0  0  0  0  0  0
   -4.2928    1.3075    0.5432 N   0  0  0  0  0  0  0  0  0  0  0  0
   -3.3586    0.4230    0.2519 N   0  0  0  0  0  0  0  0  0  0  0  0
   -3.5908   -0.9581   -0.1206 C   0  0  0  0  0  0  0  0  0  0  0  0
    0.1982   -0.1217    0.9249 C   0  0  0  0  0  0  0  0  0  0  0  0
    5.2532   -0.4188   -0.7905 H   0  0  0  0  0  0  0  0  0  0  0  0
    4.5649   -1.8814   -0.0442 H   0  0  0  0  0  0  0  0  0  0  0  0
    5.4142   -0.6695    0.9736 H   0  0  0  0  0  0  0  0  0  0  0  0
    1.3218    1.6563    0.2348 H   0  0  0  0  0  0  0  0  0  0  0  0
    0.0726   -0.6747   -1.3793 H   0  0  0  0  0  0  0  0  0  0  0  0
   -0.1143    1.1242   -1.7845 H   0  0  0  0  0  0  0  0  0  0  0  0
   -3.3917   -1.6693    0.6997 H   0  0  0  0  0  0  0  0  0  0  0  0
   -4.6671   -1.0938   -0.3960 H   0  0  0  0  0  0  0  0  0  0  0  0
   -3.0098   -1.2373   -1.0367 H   0  0  0  0  0  0  0  0  0  0  0  0
    0.2877    0.1946    1.9702 H   0  0  0  0  0  0  0  0  0  0  0  0
    0.3200   -1.2293    0.7595 H   0  0  0  0  0  0  0  0  0  0  0  0
  1  2  1  0
  2  3  1  0
  3  4  2  0
  3  5  1  0
  5  6  1  0
  6  7  1  0
  7  8  1  0
  8  9  2  0
  9 10  1  0
 10 11  2  0
 11 12  1  0
 12 13  1  0
  7 14  1  0
 14  5  1  0
 12  8  1  0
  1 15  1  0
  1 16  1  0
  1 17  1  0
  5 18  1  0
  6 19  1  0
  6 20  1  0
 13 21  1  0
 13 22  1  0
 13 23  1  0
 14 24  1  0
 14 25  1  0
M  END
$$$$

     RDKit          3D

 25 26  0  0  0  0  0  0  0  0999 V2000
    4.2791    0.6603   -0.0662 C   0  0  0  0  0  0  0  0  0  0  0  0
    3.1177   -0.1081   -0.3143 O   0  0  0  0  0  0  0  0  0  0  0  0
    2.1661   -0.3927    0.6408 C   0  0  0  0  0  0  0  0  0  0  0  0
    2.2980    0.0382    1.8097 O   0  0  0  0  0  0  0  0  0  0  0  0
    1.0098   -1.2145    0.2376 C   0  0  0  0  0  0  0  0  0  0  0  0
    0.1603   -0.4831   -0.7570 C   0  0  0  0  0  0  0  0  0  0  0  0
   -0.9985   -0.7370    0.0611 N   0  0  0  0  0  0  0  0  0  0  0  0
   -2.3748   -0.5909   -0.1011 C   0  0  0  0  0  0  0  0  0  0  0  0
   -3.2282   -1.6059   -0.3287 N   0  0  0  0  0  0  0  0  0  0  0  0
   -4.4258   -1.0391   -0.4204 N   0  0  0  0  0  0  0  0  0  0  0  0
   -4.3275    0.2894   -0.2549 N   0  0  0  0  0  0  0  0  0  0  0  0
   -3.0526    0.5646   -0.0571 N   0  0  0  0  0  0  0  0  0  0  0  0
   -2.5213    1.8944    0.1601 C   0  0  0  0  0  0  0  0  0  0  0  0
   -0.1689   -1.2080    1.1827 C   0  0  0  0  0  0  0  0  0  0  0  0
    4.8115    0.3753    0.8571 H   0  0  0  0  0  0  0  0  0  0  0  0
    4.1239    1.7383   -0.0956 H   0  0  0  0  0  0  0  0  0  0  0  0
    4.9977    0.4208   -0.9021 H   0  0  0  0  0  0  0  0  0  0  0  0
    1.3459   -2.2304   -0.0918 H   0  0  0  0  0  0  0  0  0  0  0  0
    0.4121    0.6057   -0.8582 H   0  0  0  0  0  0  0  0  0  0  0  0
    0.1977   -0.9986   -1.7440 H   0  0  0  0  0  0  0  0  0  0  0  0
   -2.8672    2.3056    1.1245 H   0  0  0  0  0  0  0  0  0  0  0  0
   -1.4215    1.9048    0.0265 H   0  0  0  0  0  0  0  0  0  0  0  0
   -2.9853    2.5683   -0.6237 H   0  0  0  0  0  0  0  0  0  0  0  0
   -0.1301   -0.4906    2.0144 H   0  0  0  0  0  0  0  0  0  0  0  0
   -0.4182   -2.2667    1.4524 H   0  0  0  0  0  0  0  0  0  0  0  0
  1  2  1  0
  2  3  1  0
  3  4  2  0
  3  5  1  0
  5  6  1  0
  6  7  1  0
  7  8  1  0
  8  9  2  0
  9 10  1  0
 10 11  2  0
 11 12  1  0
 12 13  1  0
  7 14  1  0
 14  5  1  0
 12  8  1  0
  1 15  1  0
  1 16  1  0
  1 17  1  0
  5 18  1  0
  6 19  1  0
  6 20  1  0
 13 21  1  0
 13 22  1  0
 13 23  1  0
 14 24  1  0
 14 25  1  0
M  END
$$$$

     RDKit          3D

 25 26  0  0  0  0  0  0  0  0999 V2000
    4.7714    0.1757    0.2586 C   0  0  0  0  0  0  0  0  0  0  0  0
    3.4280    0.5978    0.2358 O   0  0  0  0  0  0  0  0  0  0  0  0
    2.3541   -0.2163    0.5761 C   0  0  0  0  0  0  0  0  0  0  0  0
    2.5421   -1.3860    0.9225 O   0  0  0  0  0  0  0  0  0  0  0  0
    1.0250    0.3628    0.5038 C   0  0  0  0  0  0  0  0  0  0  0  0
   -0.1310   -0.5671    0.9139 C   0  0  0  0  0  0  0  0  0  0  0  0
   -0.8870    0.2147   -0.0207 N   0  0  0  0  0  0  0  0  0  0  0  0
   -2.1779    0.7492   -0.0777 C   0  0  0  0  0  0  0  0  0  0  0  0
   -2.4639    2.0650    0.2168 N   0  0  0  0  0  0  0  0  0  0  0  0
   -3.7362    2.3130    0.0966 N   0  0  0  0  0  0  0  0  0  0  0  0
   -4.2801    1.1674   -0.2733 N   0  0  0  0  0  0  0  0  0  0  0  0
   -3.3708    0.2138   -0.3853 N   0  0  0  0  0  0  0  0  0  0  0  0
   -3.5631   -1.1761   -0.7578 C   0  0  0  0  0  0  0  0  0  0  0  0
    0.2848    0.2130   -0.8388 C   0  0  0  0  0  0  0  0  0  0  0  0
    5.1694    0.3358    1.2712 H   0  0  0  0  0  0  0  0  0  0  0  0
    5.4227    0.7627   -0.4193 H   0  0  0  0  0  0  0  0  0  0  0  0
    4.8180   -0.8784   -0.0537 H   0  0  0  0  0  0  0  0  0  0  0  0
    0.8917    1.3861    0.8770 H   0  0  0  0  0  0  0  0  0  0  0  0
    0.1431   -1.5970    0.5467 H   0  0  0  0  0  0  0  0  0  0  0  0
   -0.4048   -0.5211    1.9747 H   0  0  0  0  0  0  0  0  0  0  0  0
   -4.6337   -1.2934   -1.0247 H   0  0  0  0  0  0  0  0  0  0  0  0
   -2.9010   -1.4306   -1.6048 H   0  0  0  0  0  0  0  0  0  0  0  0
   -3.3316   -1.7865    0.1376 H   0  0  0  0  0  0  0  0  0  0  0  0
    0.5848   -0.7687   -1.2948 H   0  0  0  0  0  0  0  0  0  0  0  0
    0.4459    1.0643   -1.5269 H   0  0  0  0  0  0  0  0  0  0  0  0
  1  2  1  0
  2  3  1  0
  3  4  2  0
  3  5  1  0
  5  6  1  0
  6  7  1  0
  7  8  1  0
  8  9  2  0
  9 10  1  0
 10 11  2  0
 11 12  1  0
 12 13  1  0
  7 14  1  0
 14  5  1  0
 12  8  1  0
  1 15  1  0
  1 16  1  0
  1 17  1  0
  5 18  1  0
  6 19  1  0
  6 20  1  0
 13 21  1  0
 13 22  1  0
 13 23  1  0
 14 24  1  0
 14 25  1  0
M  END
$$$$

     RDKit          3D

 25 26  0  0  0  0  0  0  0  0999 V2000
    4.7449   -0.6603   -0.0998 C   0  0  0  0  0  0  0  0  0  0  0  0
    3.5066   -0.0436   -0.3230 O   0  0  0  0  0  0  0  0  0  0  0  0
    2.3025   -0.7567   -0.3757 C   0  0  0  0  0  0  0  0  0  0  0  0
    2.3617   -1.9970   -0.2136 O   0  0  0  0  0  0  0  0  0  0  0  0
    1.0936    0.0049   -0.6134 C   0  0  0  0  0  0  0  0  0  0  0  0
   -0.2042   -0.8164   -0.7326 C   0  0  0  0  0  0  0  0  0  0  0  0
   -0.8291    0.3579   -0.1960 N   0  0  0  0  0  0  0  0  0  0  0  0
   -2.0184    1.0697   -0.3874 C   0  0  0  0  0  0  0  0  0  0  0  0
   -2.1055    2.2419   -1.0938 N   0  0  0  0  0  0  0  0  0  0  0  0
   -3.3550    2.6713   -1.1125 N   0  0  0  0  0  0  0  0  0  0  0  0
   -4.0453    1.7878   -0.4321 N   0  0  0  0  0  0  0  0  0  0  0  0
   -3.2544    0.8162    0.0114 N   0  0  0  0  0  0  0  0  0  0  0  0
   -3.7399   -0.3003    0.7884 C   0  0  0  0  0  0  0  0  0  0  0  0
    0.3383    0.5161    0.6249 C   0  0  0  0  0  0  0  0  0  0  0  0
    5.4431    0.1086    0.3482 H   0  0  0  0  0  0  0  0  0  0  0  0
    5.2320   -1.0080   -1.0309 H   0  0  0  0  0  0  0  0  0  0  0  0
    4.6935   -1.4988    0.6142 H   0  0  0  0  0  0  0  0  0  0  0  0
    1.1156    0.8059   -1.3643 H   0  0  0  0  0  0  0  0  0  0  0  0
   -0.1055   -1.6690   -0.0077 H   0  0  0  0  0  0  0  0  0  0  0  0
   -0.4739   -1.1092   -1.7641 H   0  0  0  0  0  0  0  0  0  0  0  0
   -4.4126   -0.9538    0.1558 H   0  0  0  0  0  0  0  0  0  0  0  0
   -2.9578   -0.9703    1.1697 H   0  0  0  0  0  0  0  0  0  0  0  0
   -4.4187    0.0770    1.5911 H   0  0  0  0  0  0  0  0  0  0  0  0
    0.6191    1.5596    0.8881 H   0  0  0  0  0  0  0  0  0  0  0  0
    0.4696   -0.2335    1.4324 H   0  0  0  0  0  0  0  0  0  0  0  0
  1  2  1  0
  2  3  1  0
  3  4  2  0
  3  5  1  0
  5  6  1  0
  6  7  1  0
  7  8  1  0
  8  9  2  0
  9 10  1  0
 10 11  2  0
 11 12  1  0
 12 13  1  0
  7 14  1  0
 14  5  1  0
 12  8  1  0
  1 15  1  0
  1 16  1  0
  1 17  1  0
  5 18  1  0
  6 19  1  0
  6 20  1  0
 13 21  1  0
 13 22  1  0
 13 23  1  0
 14 24  1  0
 14 25  1  0
M  END
$$$$
