
     RDKit          3D

 29 30  0  0  0  0  0  0  0  0999 V2000
    3.6191    0.9082    0.8363 C   0  0  0  0  0  0  0  0  0  0  0  0
    2.9954    0.2502   -0.3568 C   0  0  0  0  0  0  0  0  0  0  0  0
    1.9563   -0.6823    0.0309 N   0  0  0  0  0  0  0  0  0  0  0  0
    2.1403   -1.9630    0.2891 N   0  0  0  0  0  0  0  0  0  0  0  0
    0.9534   -2.5017    0.6129 C   0  0  0  0  0  0  0  0  0  0  0  0
    0.0554   -1.5355    0.5473 N   0  0  0  0  0  0  0  0  0  0  0  0
    0.6569   -0.4073    0.1899 C   0  0  0  0  0  0  0  0  0  0  0  0
    0.1003    0.7202    0.0294 N   0  0  0  0  0  0  0  0  0  0  0  0
   -1.2338    1.1318    0.1635 C   0  0  2  0  0  0  0  0  0  0  0  0
   -1.9537    0.6929    1.4150 C   0  0  0  0  0  0  0  0  0  0  0  0
   -3.3109    0.7057    1.1235 O   0  0  0  0  0  0  0  0  0  0  0  0
   -3.5058    0.9767   -0.2018 C   0  0  0  0  0  0  0  0  0  0  0  0
   -2.1969    0.5470   -0.8807 C   0  0  2  0  0  0  0  0  0  0  0  0
   -2.1688   -0.8793   -0.8364 N   0  0  0  0  0  0  0  0  0  0  0  0
    3.0860    1.8096    1.1831 H   0  0  0  0  0  0  0  0  0  0  0  0
    4.6745    1.2403    0.6194 H   0  0  0  0  0  0  0  0  0  0  0  0
    3.6816    0.2163    1.6885 H   0  0  0  0  0  0  0  0  0  0  0  0
    2.5654    1.0347   -1.0108 H   0  0  0  0  0  0  0  0  0  0  0  0
    3.7853   -0.2602   -0.9187 H   0  0  0  0  0  0  0  0  0  0  0  0
    3.0488   -2.4792    0.2512 H   0  0  0  0  0  0  0  0  0  0  0  0
    0.7783   -3.5572    0.8813 H   0  0  0  0  0  0  0  0  0  0  0  0
   -1.3677    2.2438    0.1263 H   0  0  0  0  0  0  0  0  0  0  0  0
   -1.6862    1.2950    2.2953 H   0  0  0  0  0  0  0  0  0  0  0  0
   -1.6889   -0.3653    1.6007 H   0  0  0  0  0  0  0  0  0  0  0  0
   -4.3652    0.4116   -0.5997 H   0  0  0  0  0  0  0  0  0  0  0  0
   -3.6292    2.0738   -0.3171 H   0  0  0  0  0  0  0  0  0  0  0  0
   -2.0669    0.9932   -1.8586 H   0  0  0  0  0  0  0  0  0  0  0  0
   -1.8070   -1.3161   -1.7078 H   0  0  0  0  0  0  0  0  0  0  0  0
   -3.1161   -1.3038   -0.6338 H   0  0  0  0  0  0  0  0  0  0  0  0
  1  2  1  0
  2  3  1  0
  3  4  1  0
  4  5  1  0
  5  6  2  0
  6  7  1  0
  7  8  2  3
  8  9  1  0
  9 10  1  0
 10 11  1  0
 11 12  1  0
 12 13  1  0
 13 14  1  0
  7  3  1  0
 13  9  1  0
  1 15  1  0
  1 16  1  0
  1 17  1  0
  2 18  1  0
  2 19  1  0
  4 20  1  0
  5 21  1  0
  9 22  1  1
 10 23  1  0
 10 24  1  0
 12 25  1  0
 12 26  1  0
 13 27  1  6
 14 28  1  0
 14 29  1  0
M  END
$$$$

     RDKit          3D

 29 30  0  0  0  0  0  0  0  0999 V2000
    3.1227    1.5753    0.6026 C   0  0  0  0  0  0  0  0  0  0  0  0
    2.5454    1.1181   -0.7071 C   0  0  0  0  0  0  0  0  0  0  0  0
    2.1177   -0.2509   -0.6864 N   0  0  0  0  0  0  0  0  0  0  0  0
    2.8743   -1.3187   -1.0022 N   0  0  0  0  0  0  0  0  0  0  0  0
    2.1197   -2.4130   -0.8599 C   0  0  0  0  0  0  0  0  0  0  0  0
    0.9092   -1.9984   -0.4580 N   0  0  0  0  0  0  0  0  0  0  0  0
    0.8875   -0.6620   -0.3445 C   0  0  0  0  0  0  0  0  0  0  0  0
   -0.1040    0.0669    0.0157 N   0  0  0  0  0  0  0  0  0  0  0  0
   -1.3516   -0.5330    0.3477 C   0  0  2  0  0  0  0  0  0  0  0  0
   -2.1982   -0.9029   -0.8230 C   0  0  0  0  0  0  0  0  0  0  0  0
   -3.3778   -0.1464   -0.7406 O   0  0  0  0  0  0  0  0  0  0  0  0
   -3.6243   -0.1309    0.6449 C   0  0  0  0  0  0  0  0  0  0  0  0
   -2.2641    0.3804    1.1406 C   0  0  2  0  0  0  0  0  0  0  0  0
   -2.1583    1.7483    0.7498 N   0  0  0  0  0  0  0  0  0  0  0  0
    3.1873    2.6976    0.5697 H   0  0  0  0  0  0  0  0  0  0  0  0
    4.1409    1.2110    0.7858 H   0  0  0  0  0  0  0  0  0  0  0  0
    2.4647    1.3357    1.4596 H   0  0  0  0  0  0  0  0  0  0  0  0
    1.6489    1.7736   -0.9066 H   0  0  0  0  0  0  0  0  0  0  0  0
    3.3225    1.2611   -1.4918 H   0  0  0  0  0  0  0  0  0  0  0  0
    3.8726   -1.2492   -1.3007 H   0  0  0  0  0  0  0  0  0  0  0  0
    2.4023   -3.4268   -1.0270 H   0  0  0  0  0  0  0  0  0  0  0  0
   -1.1959   -1.4447    0.9859 H   0  0  0  0  0  0  0  0  0  0  0  0
   -2.5404   -1.9769   -0.7492 H   0  0  0  0  0  0  0  0  0  0  0  0
   -1.7032   -0.8066   -1.7932 H   0  0  0  0  0  0  0  0  0  0  0  0
   -3.7202   -1.1721    0.9638 H   0  0  0  0  0  0  0  0  0  0  0  0
   -4.4410    0.5274    0.9264 H   0  0  0  0  0  0  0  0  0  0  0  0
   -2.1547    0.2723    2.2173 H   0  0  0  0  0  0  0  0  0  0  0  0
   -2.7560    2.0424   -0.0273 H   0  0  0  0  0  0  0  0  0  0  0  0
   -2.0259    2.4226    1.5079 H   0  0  0  0  0  0  0  0  0  0  0  0
  1  2  1  0
  2  3  1  0
  3  4  1  0
  4  5  1  0
  5  6  2  0
  6  7  1  0
  7  8  2  3
  8  9  1  0
  9 10  1  0
 10 11  1  0
 11 12  1  0
 12 13  1  0
 13 14  1  0
  7  3  1  0
 13  9  1  0
  1 15  1  0
  1 16  1  0
  1 17  1  0
  2 18  1  0
  2 19  1  0
  4 20  1  0
  5 21  1  0
  9 22  1  1
 10 23  1  0
 10 24  1  0
 12 25  1  0
 12 26  1  0
 13 27  1  1
 14 28  1  0
 14 29  1  0
M  END
$$$$

     RDKit          3D

 29 30  0  0  0  0  0  0  0  0999 V2000
   -2.5511    1.9519   -0.2394 C   0  0  0  0  0  0  0  0  0  0  0  0
   -2.6487    0.6612    0.5312 C   0  0  0  0  0  0  0  0  0  0  0  0
   -1.9529   -0.4244   -0.1194 N   0  0  0  0  0  0  0  0  0  0  0  0
   -2.5385   -1.2404   -1.0121 N   0  0  0  0  0  0  0  0  0  0  0  0
   -1.6539   -2.1519   -1.4489 C   0  0  0  0  0  0  0  0  0  0  0  0
   -0.4987   -1.8749   -0.7975 N   0  0  0  0  0  0  0  0  0  0  0  0
   -0.6822   -0.8220    0.0124 C   0  0  0  0  0  0  0  0  0  0  0  0
    0.1937   -0.3065    0.7607 N   0  0  0  0  0  0  0  0  0  0  0  0
    1.5484   -0.7117    0.9167 C   0  0  2  0  0  0  0  0  0  0  0  0
    2.1835    0.2811    1.9052 C   0  0  0  0  0  0  0  0  0  0  0  0
    2.3681    1.4464    1.1997 O   0  0  0  0  0  0  0  0  0  0  0  0
    2.2587    1.1900   -0.1406 C   0  0  0  0  0  0  0  0  0  0  0  0
    2.4035   -0.3147   -0.2946 C   0  0  2  0  0  0  0  0  0  0  0  0
    1.9036   -0.8186   -1.5173 N   0  0  0  0  0  0  0  0  0  0  0  0
   -1.7827    1.9019   -1.0355 H   0  0  0  0  0  0  0  0  0  0  0  0
   -2.2431    2.8009    0.4270 H   0  0  0  0  0  0  0  0  0  0  0  0
   -3.5326    2.1984   -0.7352 H   0  0  0  0  0  0  0  0  0  0  0  0
   -3.7177    0.3524    0.6814 H   0  0  0  0  0  0  0  0  0  0  0  0
   -2.1603    0.8299    1.5186 H   0  0  0  0  0  0  0  0  0  0  0  0
   -3.5321   -1.2122   -1.3505 H   0  0  0  0  0  0  0  0  0  0  0  0
   -1.7900   -2.9390   -2.1538 H   0  0  0  0  0  0  0  0  0  0  0  0
    1.7068   -1.7443    1.2133 H   0  0  0  0  0  0  0  0  0  0  0  0
    1.4443    0.3990    2.7310 H   0  0  0  0  0  0  0  0  0  0  0  0
    3.1387   -0.1435    2.3029 H   0  0  0  0  0  0  0  0  0  0  0  0
    2.9751    1.7452   -0.7705 H   0  0  0  0  0  0  0  0  0  0  0  0
    1.2091    1.4156   -0.4838 H   0  0  0  0  0  0  0  0  0  0  0  0
    3.4601   -0.5524   -0.0772 H   0  0  0  0  0  0  0  0  0  0  0  0
    2.0818   -0.1949   -2.3142 H   0  0  0  0  0  0  0  0  0  0  0  0
    2.4093   -1.7225   -1.7364 H   0  0  0  0  0  0  0  0  0  0  0  0
  1  2  1  0
  2  3  1  0
  3  4  1  0
  4  5  1  0
  5  6  2  0
  6  7  1  0
  7  8  2  3
  8  9  1  0
  9 10  1  0
 10 11  1  0
 11 12  1  0
 12 13  1  0
 13 14  1  0
  7  3  1  0
 13  9  1  0
  1 15  1  0
  1 16  1  0
  1 17  1  0
  2 18  1  0
  2 19  1  0
  4 20  1  0
  5 21  1  0
  9 22  1  1
 10 23  1  0
 10 24  1  0
 12 25  1  0
 12 26  1  0
 13 27  1  1
 14 28  1  0
 14 29  1  0
M  END
$$$$

     RDKit          3D

 29 30  0  0  0  0  0  0  0  0999 V2000
    2.7653   -0.2516   -1.6293 C   0  0  0  0  0  0  0  0  0  0  0  0
    2.5820    0.8822   -0.6614 C   0  0  0  0  0  0  0  0  0  0  0  0
    1.8645    0.4268    0.5229 N   0  0  0  0  0  0  0  0  0  0  0  0
    2.4552   -0.0530    1.5874 N   0  0  0  0  0  0  0  0  0  0  0  0
    1.4909   -0.3606    2.4523 C   0  0  0  0  0  0  0  0  0  0  0  0
    0.3004   -0.0633    1.9049 N   0  0  0  0  0  0  0  0  0  0  0  0
    0.5306    0.4295    0.6979 C   0  0  0  0  0  0  0  0  0  0  0  0
   -0.2762    0.8567   -0.2116 N   0  0  0  0  0  0  0  0  0  0  0  0
   -1.6938    0.8976   -0.1164 C   0  0  2  0  0  0  0  0  0  0  0  0
   -2.2363    0.7237    1.2757 C   0  0  0  0  0  0  0  0  0  0  0  0
   -2.2848   -0.6251    1.4958 O   0  0  0  0  0  0  0  0  0  0  0  0
   -2.4235   -1.2848    0.3083 C   0  0  0  0  0  0  0  0  0  0  0  0
   -2.3552   -0.2997   -0.8130 C   0  0  2  0  0  0  0  0  0  0  0  0
   -1.7048   -0.7161   -1.9757 N   0  0  0  0  0  0  0  0  0  0  0  0
    3.6553   -0.8642   -1.3267 H   0  0  0  0  0  0  0  0  0  0  0  0
    1.8413   -0.8584   -1.6929 H   0  0  0  0  0  0  0  0  0  0  0  0
    2.9857    0.1643   -2.6274 H   0  0  0  0  0  0  0  0  0  0  0  0
    3.5759    1.3014   -0.4094 H   0  0  0  0  0  0  0  0  0  0  0  0
    1.9742    1.6641   -1.1629 H   0  0  0  0  0  0  0  0  0  0  0  0
    3.5061   -0.1624    1.7055 H   0  0  0  0  0  0  0  0  0  0  0  0
    1.6983   -0.7840    3.4343 H   0  0  0  0  0  0  0  0  0  0  0  0
   -2.0452    1.8417   -0.5914 H   0  0  0  0  0  0  0  0  0  0  0  0
   -3.3045    1.0883    1.2398 H   0  0  0  0  0  0  0  0  0  0  0  0
   -1.6544    1.2871    2.0302 H   0  0  0  0  0  0  0  0  0  0  0  0
   -1.5257   -1.9614    0.1997 H   0  0  0  0  0  0  0  0  0  0  0  0
   -3.3407   -1.8969    0.3219 H   0  0  0  0  0  0  0  0  0  0  0  0
   -3.4078    0.0133   -1.0452 H   0  0  0  0  0  0  0  0  0  0  0  0
   -0.7133   -0.5236   -2.0904 H   0  0  0  0  0  0  0  0  0  0  0  0
   -2.2593   -0.8715   -2.8228 H   0  0  0  0  0  0  0  0  0  0  0  0
  1  2  1  0
  2  3  1  0
  3  4  1  0
  4  5  1  0
  5  6  2  0
  6  7  1  0
  7  8  2  3
  8  9  1  0
  9 10  1  0
 10 11  1  0
 11 12  1  0
 12 13  1  0
 13 14  1  0
  7  3  1  0
 13  9  1  0
  1 15  1  0
  1 16  1  0
  1 17  1  0
  2 18  1  0
  2 19  1  0
  4 20  1  0
  5 21  1  0
  9 22  1  6
 10 23  1  0
 10 24  1  0
 12 25  1  0
 12 26  1  0
 13 27  1  6
 14 28  1  0
 14 29  1  0
M  END
$$$$

     RDKit          3D

 29 30  0  0  0  0  0  0  0  0999 V2000
    3.3885    0.9559   -1.0134 C   0  0  0  0  0  0  0  0  0  0  0  0
    3.0643    0.3244    0.3120 C   0  0  0  0  0  0  0  0  0  0  0  0
    1.9832   -0.6198    0.2472 N   0  0  0  0  0  0  0  0  0  0  0  0
    2.1560   -1.9084    0.0034 N   0  0  0  0  0  0  0  0  0  0  0  0
    0.9849   -2.5336    0.0030 C   0  0  0  0  0  0  0  0  0  0  0  0
    0.0402   -1.6111    0.2546 N   0  0  0  0  0  0  0  0  0  0  0  0
    0.6641   -0.4356    0.4035 C   0  0  0  0  0  0  0  0  0  0  0  0
    0.1026    0.6653    0.6503 N   0  0  0  0  0  0  0  0  0  0  0  0
   -1.2644    0.9737    0.8331 C   0  0  2  0  0  0  0  0  0  0  0  0
   -2.0431    0.0492    1.7086 C   0  0  0  0  0  0  0  0  0  0  0  0
   -3.2536   -0.2337    1.0848 O   0  0  0  0  0  0  0  0  0  0  0  0
   -3.4719    0.7981    0.1654 C   0  0  0  0  0  0  0  0  0  0  0  0
   -2.0869    0.9136   -0.4512 C   0  0  2  0  0  0  0  0  0  0  0  0
   -1.8320   -0.2798   -1.1944 N   0  0  0  0  0  0  0  0  0  0  0  0
    2.9676    1.9835   -1.0124 H   0  0  0  0  0  0  0  0  0  0  0  0
    4.4892    1.0704   -1.1029 H   0  0  0  0  0  0  0  0  0  0  0  0
    3.0528    0.3578   -1.8751 H   0  0  0  0  0  0  0  0  0  0  0  0
    2.8285    1.1175    1.0787 H   0  0  0  0  0  0  0  0  0  0  0  0
    3.9656   -0.1881    0.7055 H   0  0  0  0  0  0  0  0  0  0  0  0
    3.0769   -2.4028   -0.1703 H   0  0  0  0  0  0  0  0  0  0  0  0
    0.7688   -3.5682   -0.1594 H   0  0  0  0  0  0  0  0  0  0  0  0
   -1.4134    2.0163    1.2328 H   0  0  0  0  0  0  0  0  0  0  0  0
   -2.3149    0.5449    2.6783 H   0  0  0  0  0  0  0  0  0  0  0  0
   -1.5026   -0.8965    1.9092 H   0  0  0  0  0  0  0  0  0  0  0  0
   -4.2381    0.5152   -0.5544 H   0  0  0  0  0  0  0  0  0  0  0  0
   -3.6840    1.7662    0.6912 H   0  0  0  0  0  0  0  0  0  0  0  0
   -1.9763    1.8411   -1.0432 H   0  0  0  0  0  0  0  0  0  0  0  0
   -2.4622   -1.0425   -0.8629 H   0  0  0  0  0  0  0  0  0  0  0  0
   -1.9898   -0.1729   -2.2203 H   0  0  0  0  0  0  0  0  0  0  0  0
  1  2  1  0
  2  3  1  0
  3  4  1  0
  4  5  1  0
  5  6  2  0
  6  7  1  0
  7  8  2  3
  8  9  1  0
  9 10  1  0
 10 11  1  0
 11 12  1  0
 12 13  1  0
 13 14  1  0
  7  3  1  0
 13  9  1  0
  1 15  1  0
  1 16  1  0
  1 17  1  0
  2 18  1  0
  2 19  1  0
  4 20  1  0
  5 21  1  0
  9 22  1  1
 10 23  1  0
 10 24  1  0
 12 25  1  0
 12 26  1  0
 13 27  1  6
 14 28  1  0
 14 29  1  0
M  END
$$$$

     RDKit          3D

 29 30  0  0  0  0  0  0  0  0999 V2000
   -3.0096    0.9606    1.2688 C   0  0  0  0  0  0  0  0  0  0  0  0
   -2.3976    1.2047   -0.0843 C   0  0  0  0  0  0  0  0  0  0  0  0
   -1.9374   -0.0101   -0.7072 N   0  0  0  0  0  0  0  0  0  0  0  0
   -2.6451   -0.7930   -1.4980 N   0  0  0  0  0  0  0  0  0  0  0  0
   -1.8991   -1.8334   -1.8950 C   0  0  0  0  0  0  0  0  0  0  0  0
   -0.7052   -1.6851   -1.3341 N   0  0  0  0  0  0  0  0  0  0  0  0
   -0.7113   -0.5631   -0.5964 C   0  0  0  0  0  0  0  0  0  0  0  0
    0.2758   -0.0798    0.1051 N   0  0  0  0  0  0  0  0  0  0  0  0
    1.5177   -0.7874    0.1201 C   0  0  2  0  0  0  0  0  0  0  0  0
    1.8566   -1.0454    1.5969 C   0  0  0  0  0  0  0  0  0  0  0  0
    1.9917    0.2413    2.0719 O   0  0  0  0  0  0  0  0  0  0  0  0
    2.5481    1.0218    1.0903 C   0  0  0  0  0  0  0  0  0  0  0  0
    2.6944    0.1617   -0.1518 C   0  0  2  0  0  0  0  0  0  0  0  0
    2.5512    0.8787   -1.3666 N   0  0  0  0  0  0  0  0  0  0  0  0
   -2.2445    0.6832    2.0201 H   0  0  0  0  0  0  0  0  0  0  0  0
   -3.7486    0.1582    1.2184 H   0  0  0  0  0  0  0  0  0  0  0  0
   -3.5219    1.8780    1.6064 H   0  0  0  0  0  0  0  0  0  0  0  0
   -1.5589    1.9434    0.0352 H   0  0  0  0  0  0  0  0  0  0  0  0
   -3.1575    1.7223   -0.7085 H   0  0  0  0  0  0  0  0  0  0  0  0
   -3.6545   -0.6694   -1.8080 H   0  0  0  0  0  0  0  0  0  0  0  0
   -2.1937   -2.6620   -2.5558 H   0  0  0  0  0  0  0  0  0  0  0  0
    1.5544   -1.6850   -0.4804 H   0  0  0  0  0  0  0  0  0  0  0  0
    2.8665   -1.5201    1.6229 H   0  0  0  0  0  0  0  0  0  0  0  0
    1.0864   -1.6232    2.1003 H   0  0  0  0  0  0  0  0  0  0  0  0
    3.4954    1.4518    1.4208 H   0  0  0  0  0  0  0  0  0  0  0  0
    1.8192    1.8489    0.8432 H   0  0  0  0  0  0  0  0  0  0  0  0
    3.6251   -0.4224   -0.0670 H   0  0  0  0  0  0  0  0  0  0  0  0
    1.9923    0.2875   -2.0489 H   0  0  0  0  0  0  0  0  0  0  0  0
    3.5100    0.9375   -1.8184 H   0  0  0  0  0  0  0  0  0  0  0  0
  1  2  1  0
  2  3  1  0
  3  4  1  0
  4  5  1  0
  5  6  2  0
  6  7  1  0
  7  8  2  3
  8  9  1  0
  9 10  1  0
 10 11  1  0
 11 12  1  0
 12 13  1  0
 13 14  1  0
  7  3  1  0
 13  9  1  0
  1 15  1  0
  1 16  1  0
  1 17  1  0
  2 18  1  0
  2 19  1  0
  4 20  1  0
  5 21  1  0
  9 22  1  6
 10 23  1  0
 10 24  1  0
 12 25  1  0
 12 26  1  0
 13 27  1  6
 14 28  1  0
 14 29  1  0
M  END
$$$$

     RDKit          3D

 29 30  0  0  0  0  0  0  0  0999 V2000
   -3.1767   -1.5214   -0.3266 C   0  0  0  0  0  0  0  0  0  0  0  0
   -2.3110   -1.1659    0.8475 C   0  0  0  0  0  0  0  0  0  0  0  0
   -1.8565    0.2110    0.6508 N   0  0  0  0  0  0  0  0  0  0  0  0
   -2.4761    1.3023    1.0724 N   0  0  0  0  0  0  0  0  0  0  0  0
   -1.7638    2.3913    0.7089 C   0  0  0  0  0  0  0  0  0  0  0  0
   -0.6876    1.9226    0.0504 N   0  0  0  0  0  0  0  0  0  0  0  0
   -0.7356    0.5869    0.0096 C   0  0  0  0  0  0  0  0  0  0  0  0
    0.1420   -0.1781   -0.5472 N   0  0  0  0  0  0  0  0  0  0  0  0
    1.3001    0.3835   -1.2007 C   0  0  2  0  0  0  0  0  0  0  0  0
    1.8603   -0.6482   -2.1896 C   0  0  0  0  0  0  0  0  0  0  0  0
    2.5282   -1.5498   -1.4030 O   0  0  0  0  0  0  0  0  0  0  0  0
    3.0243   -0.9223   -0.2991 C   0  0  0  0  0  0  0  0  0  0  0  0
    2.4813    0.4681   -0.2352 C   0  0  2  0  0  0  0  0  0  0  0  0
    2.0481    0.8623    1.0873 N   0  0  0  0  0  0  0  0  0  0  0  0
   -3.1247   -2.5991   -0.5897 H   0  0  0  0  0  0  0  0  0  0  0  0
   -4.2185   -1.1950   -0.1168 H   0  0  0  0  0  0  0  0  0  0  0  0
   -2.8042   -0.9561   -1.2072 H   0  0  0  0  0  0  0  0  0  0  0  0
   -1.4020   -1.8238    0.8667 H   0  0  0  0  0  0  0  0  0  0  0  0
   -2.8094   -1.3049    1.8219 H   0  0  0  0  0  0  0  0  0  0  0  0
   -3.3728    1.3286    1.6023 H   0  0  0  0  0  0  0  0  0  0  0  0
   -2.0431    3.4145    0.9264 H   0  0  0  0  0  0  0  0  0  0  0  0
    1.0769    1.3362   -1.6744 H   0  0  0  0  0  0  0  0  0  0  0  0
    2.5416   -0.1191   -2.8733 H   0  0  0  0  0  0  0  0  0  0  0  0
    1.0245   -1.1094   -2.7556 H   0  0  0  0  0  0  0  0  0  0  0  0
    2.6308   -1.4685    0.6044 H   0  0  0  0  0  0  0  0  0  0  0  0
    4.1250   -0.8926   -0.2240 H   0  0  0  0  0  0  0  0  0  0  0  0
    3.1769    1.2296   -0.6826 H   0  0  0  0  0  0  0  0  0  0  0  0
    2.4054    0.1994    1.8152 H   0  0  0  0  0  0  0  0  0  0  0  0
    2.4167    1.8179    1.3074 H   0  0  0  0  0  0  0  0  0  0  0  0
  1  2  1  0
  2  3  1  0
  3  4  1  0
  4  5  1  0
  5  6  2  0
  6  7  1  0
  7  8  2  3
  8  9  1  0
  9 10  1  0
 10 11  1  0
 11 12  1  0
 12 13  1  0
 13 14  1  0
  7  3  1  0
 13  9  1  0
  1 15  1  0
  1 16  1  0
  1 17  1  0
  2 18  1  0
  2 19  1  0
  4 20  1  0
  5 21  1  0
  9 22  1  6
 10 23  1  0
 10 24  1  0
 12 25  1  0
 12 26  1  0
 13 27  1  6
 14 28  1  0
 14 29  1  0
M  END
$$$$

     RDKit          3D

 29 30  0  0  0  0  0  0  0  0999 V2000
    2.3438    1.6974    0.1968 C   0  0  0  0  0  0  0  0  0  0  0  0
    1.8358    0.6446   -0.7929 C   0  0  0  0  0  0  0  0  0  0  0  0
    1.8592   -0.6778   -0.2171 N   0  0  0  0  0  0  0  0  0  0  0  0
    2.9363   -1.4727   -0.3435 N   0  0  0  0  0  0  0  0  0  0  0  0
    2.6808   -2.6318    0.2773 C   0  0  0  0  0  0  0  0  0  0  0  0
    1.4471   -2.5323    0.7777 N   0  0  0  0  0  0  0  0  0  0  0  0
    0.9208   -1.3273    0.4817 C   0  0  0  0  0  0  0  0  0  0  0  0
   -0.2292   -0.9608    0.8355 N   0  0  0  0  0  0  0  0  0  0  0  0
   -0.9709    0.2046    0.6624 C   0  0  2  0  0  0  0  0  0  0  0  0
   -2.0271    0.2709    1.7858 C   0  0  0  0  0  0  0  0  0  0  0  0
   -3.0303    1.0784    1.3285 O   0  0  0  0  0  0  0  0  0  0  0  0
   -2.9161    1.2415   -0.0263 C   0  0  0  0  0  0  0  0  0  0  0  0
   -1.9054    0.2163   -0.5273 C   0  0  2  0  0  0  0  0  0  0  0  0
   -2.5597   -1.0525   -0.7188 N   0  0  0  0  0  0  0  0  0  0  0  0
    3.4243    1.8798    0.0859 H   0  0  0  0  0  0  0  0  0  0  0  0
    2.1970    1.2842    1.2187 H   0  0  0  0  0  0  0  0  0  0  0  0
    1.7595    2.6315    0.0583 H   0  0  0  0  0  0  0  0  0  0  0  0
    2.5808    0.7058   -1.6439 H   0  0  0  0  0  0  0  0  0  0  0  0
    0.8799    0.9408   -1.2171 H   0  0  0  0  0  0  0  0  0  0  0  0
    3.8389   -1.2362   -0.8451 H   0  0  0  0  0  0  0  0  0  0  0  0
    3.3372   -3.4963    0.3669 H   0  0  0  0  0  0  0  0  0  0  0  0
   -0.4586    1.1751    0.7194 H   0  0  0  0  0  0  0  0  0  0  0  0
   -2.4317   -0.7326    1.9948 H   0  0  0  0  0  0  0  0  0  0  0  0
   -1.5223    0.6539    2.7027 H   0  0  0  0  0  0  0  0  0  0  0  0
   -2.4608    2.2539   -0.2033 H   0  0  0  0  0  0  0  0  0  0  0  0
   -3.8688    1.1826   -0.5732 H   0  0  0  0  0  0  0  0  0  0  0  0
   -1.4549    0.5290   -1.4646 H   0  0  0  0  0  0  0  0  0  0  0  0
   -2.7090   -1.5838    0.1620 H   0  0  0  0  0  0  0  0  0  0  0  0
   -3.4965   -0.8864   -1.1407 H   0  0  0  0  0  0  0  0  0  0  0  0
  1  2  1  0
  2  3  1  0
  3  4  1  0
  4  5  1  0
  5  6  2  0
  6  7  1  0
  7  8  2  3
  8  9  1  0
  9 10  1  0
 10 11  1  0
 11 12  1  0
 12 13  1  0
 13 14  1  0
  7  3  1  0
 13  9  1  0
  1 15  1  0
  1 16  1  0
  1 17  1  0
  2 18  1  0
  2 19  1  0
  4 20  1  0
  5 21  1  0
  9 22  1  6
 10 23  1  0
 10 24  1  0
 12 25  1  0
 12 26  1  0
 13 27  1  6
 14 28  1  0
 14 29  1  0
M  END
$$$$
