
     RDKit          3D

 31 32  0  0  0  0  0  0  0  0999 V2000
    0.6141   -0.4964   -1.4129 C   0  0  0  0  0  0  0  0  0  0  0  0
    0.4924   -0.3934   -0.0366 N   0  0  0  0  0  0  0  0  0  0  0  0
    1.5464   -0.0174    0.7952 C   0  0  1  0  0  0  0  0  0  0  0  0
    2.7508   -0.9297    0.8310 C   0  0  0  0  0  0  0  0  0  0  0  0
    3.3176   -1.0272   -0.4828 N   0  0  0  0  0  0  0  0  0  0  0  0
    2.0074    1.3782    0.5805 C   0  0  0  0  0  0  0  0  0  0  0  0
    1.4788    2.0961   -0.2965 O   0  0  0  0  0  0  0  0  0  0  0  0
    3.0271    1.9341    1.3312 O   0  0  0  0  0  0  0  0  0  0  0  0
   -0.8167   -0.3890    0.5112 C   0  0  1  0  0  0  0  0  0  0  0  0
   -1.6843    0.7427    0.1053 C   0  0  2  0  0  0  0  0  0  0  0  0
   -2.8332    1.1069    0.9996 C   0  0  0  0  0  0  0  0  0  0  0  0
   -3.9376    0.4143    0.3159 N   0  0  0  0  0  0  0  0  0  0  0  0
   -3.3404   -0.9259    0.2069 C   0  0  0  0  0  0  0  0  0  0  0  0
   -1.9573   -0.6929   -0.3508 C   0  0  2  0  0  0  0  0  0  0  0  0
    1.5631   -0.2478   -1.8581 H   0  0  0  0  0  0  0  0  0  0  0  0
    0.3375   -1.5351   -1.7639 H   0  0  0  0  0  0  0  0  0  0  0  0
   -0.1759    0.1561   -1.8983 H   0  0  0  0  0  0  0  0  0  0  0  0
    1.1562   -0.0230    1.8600 H   0  0  0  0  0  0  0  0  0  0  0  0
    2.5249   -1.9008    1.2883 H   0  0  0  0  0  0  0  0  0  0  0  0
    3.5391   -0.4562    1.4822 H   0  0  0  0  0  0  0  0  0  0  0  0
    3.7198   -0.1444   -0.8332 H   0  0  0  0  0  0  0  0  0  0  0  0
    3.9385   -1.8555   -0.6254 H   0  0  0  0  0  0  0  0  0  0  0  0
    3.6296    2.6461    0.9991 H   0  0  0  0  0  0  0  0  0  0  0  0
   -0.8712   -0.7004    1.5875 H   0  0  0  0  0  0  0  0  0  0  0  0
   -1.4244    1.4140   -0.7244 H   0  0  0  0  0  0  0  0  0  0  0  0
   -2.6604    0.7192    2.0109 H   0  0  0  0  0  0  0  0  0  0  0  0
   -2.9634    2.1989    0.9571 H   0  0  0  0  0  0  0  0  0  0  0  0
   -3.9295    0.7959   -0.6592 H   0  0  0  0  0  0  0  0  0  0  0  0
   -3.3417   -1.4014    1.1905 H   0  0  0  0  0  0  0  0  0  0  0  0
   -3.9342   -1.4792   -0.5375 H   0  0  0  0  0  0  0  0  0  0  0  0
   -1.7731   -0.9868   -1.3807 H   0  0  0  0  0  0  0  0  0  0  0  0
  1  2  1  0
  2  3  1  0
  3  4  1  0
  4  5  1  0
  3  6  1  0
  6  7  2  0
  6  8  1  0
  2  9  1  0
  9 10  1  0
 10 11  1  0
 11 12  1  0
 12 13  1  0
 13 14  1  0
 14  9  1  0
 14 10  1  0
  1 15  1  0
  1 16  1  0
  1 17  1  0
  3 18  1  1
  4 19  1  0
  4 20  1  0
  5 21  1  0
  5 22  1  0
  8 23  1  0
  9 24  1  1
 10 25  1  6
 11 26  1  0
 11 27  1  0
 12 28  1  0
 13 29  1  0
 13 30  1  0
 14 31  1  6
M  END
$$$$

     RDKit          3D

 31 32  0  0  0  0  0  0  0  0999 V2000
   -0.6640   -1.9231   -0.9921 C   0  0  0  0  0  0  0  0  0  0  0  0
   -0.4260   -0.7482   -0.2625 N   0  0  0  0  0  0  0  0  0  0  0  0
   -1.4820    0.0155    0.2390 C   0  0  1  0  0  0  0  0  0  0  0  0
   -2.3246    0.5637   -0.8895 C   0  0  0  0  0  0  0  0  0  0  0  0
   -3.4071    1.3481   -0.3339 N   0  0  0  0  0  0  0  0  0  0  0  0
   -2.3617   -0.6622    1.2179 C   0  0  0  0  0  0  0  0  0  0  0  0
   -2.2449   -1.8408    1.6111 O   0  0  0  0  0  0  0  0  0  0  0  0
   -3.4088    0.0865    1.7419 O   0  0  0  0  0  0  0  0  0  0  0  0
    0.8950   -0.4728    0.1701 C   0  0  1  0  0  0  0  0  0  0  0  0
    1.9142   -0.2936   -0.9344 C   0  0  2  0  0  0  0  0  0  0  0  0
    3.3808   -0.4477   -0.6002 C   0  0  0  0  0  0  0  0  0  0  0  0
    3.5162    0.2579    0.6577 N   0  0  0  0  0  0  0  0  0  0  0  0
    2.6897    1.4163    0.4559 C   0  0  0  0  0  0  0  0  0  0  0  0
    1.4192    0.8983   -0.1612 C   0  0  2  0  0  0  0  0  0  0  0  0
   -0.4807   -2.8711   -0.4307 H   0  0  0  0  0  0  0  0  0  0  0  0
   -1.6162   -1.9055   -1.5126 H   0  0  0  0  0  0  0  0  0  0  0  0
    0.1116   -1.9625   -1.8185 H   0  0  0  0  0  0  0  0  0  0  0  0
   -1.0597    0.9008    0.7939 H   0  0  0  0  0  0  0  0  0  0  0  0
   -2.7941   -0.2716   -1.4316 H   0  0  0  0  0  0  0  0  0  0  0  0
   -1.6656    1.1802   -1.5360 H   0  0  0  0  0  0  0  0  0  0  0  0
   -3.1084    2.1205    0.2727 H   0  0  0  0  0  0  0  0  0  0  0  0
   -4.1459    1.5542   -1.0102 H   0  0  0  0  0  0  0  0  0  0  0  0
   -4.2817   -0.3219    2.0446 H   0  0  0  0  0  0  0  0  0  0  0  0
    1.3007   -0.9197    1.1074 H   0  0  0  0  0  0  0  0  0  0  0  0
    1.6283   -0.3721   -1.9846 H   0  0  0  0  0  0  0  0  0  0  0  0
    3.6393   -1.5335   -0.4604 H   0  0  0  0  0  0  0  0  0  0  0  0
    3.9821    0.0040   -1.4127 H   0  0  0  0  0  0  0  0  0  0  0  0
    4.5166    0.5481    0.7379 H   0  0  0  0  0  0  0  0  0  0  0  0
    2.5245    1.9479    1.4162 H   0  0  0  0  0  0  0  0  0  0  0  0
    3.2221    2.0902   -0.2541 H   0  0  0  0  0  0  0  0  0  0  0  0
    0.7311    1.6137   -0.6822 H   0  0  0  0  0  0  0  0  0  0  0  0
  1  2  1  0
  2  3  1  0
  3  4  1  0
  4  5  1  0
  3  6  1  0
  6  7  2  0
  6  8  1  0
  2  9  1  0
  9 10  1  0
 10 11  1  0
 11 12  1  0
 12 13  1  0
 13 14  1  0
 14  9  1  0
 14 10  1  0
  1 15  1  0
  1 16  1  0
  1 17  1  0
  3 18  1  1
  4 19  1  0
  4 20  1  0
  5 21  1  0
  5 22  1  0
  8 23  1  0
  9 24  1  1
 10 25  1  6
 11 26  1  0
 11 27  1  0
 12 28  1  0
 13 29  1  0
 13 30  1  0
 14 31  1  6
M  END
$$$$

     RDKit          3D

 31 32  0  0  0  0  0  0  0  0999 V2000
   -0.7198   -0.8019    2.0647 C   0  0  0  0  0  0  0  0  0  0  0  0
   -0.6270   -0.6160    0.6287 N   0  0  0  0  0  0  0  0  0  0  0  0
   -1.7896    0.0131    0.0855 C   0  0  1  0  0  0  0  0  0  0  0  0
   -1.6191    1.2473   -0.7011 C   0  0  0  0  0  0  0  0  0  0  0  0
   -2.9765    1.6582   -1.1073 N   0  0  0  0  0  0  0  0  0  0  0  0
   -2.6496   -0.9920   -0.5448 C   0  0  0  0  0  0  0  0  0  0  0  0
   -3.0710   -0.7751   -1.7313 O   0  0  0  0  0  0  0  0  0  0  0  0
   -3.0251   -2.1575    0.0848 O   0  0  0  0  0  0  0  0  0  0  0  0
    0.5959    0.1334    0.3242 C   0  0  1  0  0  0  0  0  0  0  0  0
    1.8485   -0.6303    0.6976 C   0  0  2  0  0  0  0  0  0  0  0  0
    3.1572    0.1209    0.7847 C   0  0  0  0  0  0  0  0  0  0  0  0
    3.7110   -0.0849   -0.5486 N   0  0  0  0  0  0  0  0  0  0  0  0
    2.5698    0.2820   -1.3869 C   0  0  0  0  0  0  0  0  0  0  0  0
    1.4192   -0.4853   -0.7660 C   0  0  2  0  0  0  0  0  0  0  0  0
   -0.4490   -1.8451    2.3629 H   0  0  0  0  0  0  0  0  0  0  0  0
   -0.1088   -0.0641    2.5883 H   0  0  0  0  0  0  0  0  0  0  0  0
   -1.8006   -0.6925    2.3537 H   0  0  0  0  0  0  0  0  0  0  0  0
   -2.3950    0.3354    1.0247 H   0  0  0  0  0  0  0  0  0  0  0  0
   -0.9367    1.1852   -1.5484 H   0  0  0  0  0  0  0  0  0  0  0  0
   -1.2457    2.0680   -0.0343 H   0  0  0  0  0  0  0  0  0  0  0  0
   -3.1087    1.6693   -2.1071 H   0  0  0  0  0  0  0  0  0  0  0  0
   -3.3148    2.4901   -0.5701 H   0  0  0  0  0  0  0  0  0  0  0  0
   -3.5160   -2.9362   -0.3233 H   0  0  0  0  0  0  0  0  0  0  0  0
    0.5996    1.2141    0.4652 H   0  0  0  0  0  0  0  0  0  0  0  0
    1.7994   -1.6260    1.1628 H   0  0  0  0  0  0  0  0  0  0  0  0
    2.9964    1.2146    0.9671 H   0  0  0  0  0  0  0  0  0  0  0  0
    3.8393   -0.2775    1.5564 H   0  0  0  0  0  0  0  0  0  0  0  0
    4.5076    0.5481   -0.7429 H   0  0  0  0  0  0  0  0  0  0  0  0
    2.7767   -0.1412   -2.3894 H   0  0  0  0  0  0  0  0  0  0  0  0
    2.4141    1.3705   -1.3953 H   0  0  0  0  0  0  0  0  0  0  0  0
    1.1182   -1.4245   -1.2544 H   0  0  0  0  0  0  0  0  0  0  0  0
  1  2  1  0
  2  3  1  0
  3  4  1  0
  4  5  1  0
  3  6  1  0
  6  7  2  0
  6  8  1  0
  2  9  1  0
  9 10  1  0
 10 11  1  0
 11 12  1  0
 12 13  1  0
 13 14  1  0
 14  9  1  0
 14 10  1  0
  1 15  1  0
  1 16  1  0
  1 17  1  0
  3 18  1  1
  4 19  1  0
  4 20  1  0
  5 21  1  0
  5 22  1  0
  8 23  1  0
  9 24  1  6
 10 25  1  1
 11 26  1  0
 11 27  1  0
 12 28  1  0
 13 29  1  0
 13 30  1  0
 14 31  1  6
M  END
$$$$

     RDKit          3D

 31 32  0  0  0  0  0  0  0  0999 V2000
   -0.6221   -0.7886   -1.5855 C   0  0  0  0  0  0  0  0  0  0  0  0
   -0.5051   -0.2300   -0.3023 N   0  0  0  0  0  0  0  0  0  0  0  0
   -1.6697    0.1319    0.3808 C   0  0  1  0  0  0  0  0  0  0  0  0
   -2.4241    1.2264   -0.3645 C   0  0  0  0  0  0  0  0  0  0  0  0
   -3.6292    1.6312    0.2974 N   0  0  0  0  0  0  0  0  0  0  0  0
   -2.5995   -1.0348    0.4548 C   0  0  0  0  0  0  0  0  0  0  0  0
   -3.7325   -0.9763    1.0115 O   0  0  0  0  0  0  0  0  0  0  0  0
   -2.2074   -2.2426   -0.1120 O   0  0  0  0  0  0  0  0  0  0  0  0
    0.7612    0.0824    0.1942 C   0  0  1  0  0  0  0  0  0  0  0  0
    1.8408   -0.8880    0.4526 C   0  0  2  0  0  0  0  0  0  0  0  0
    3.1084   -0.5189    1.1286 C   0  0  0  0  0  0  0  0  0  0  0  0
    3.8469    0.3877    0.2922 N   0  0  0  0  0  0  0  0  0  0  0  0
    2.9907    0.8727   -0.7442 C   0  0  0  0  0  0  0  0  0  0  0  0
    1.8729   -0.1008   -0.8021 C   0  0  2  0  0  0  0  0  0  0  0  0
   -1.7040   -0.8086   -1.8783 H   0  0  0  0  0  0  0  0  0  0  0  0
   -0.1487   -0.0927   -2.3375 H   0  0  0  0  0  0  0  0  0  0  0  0
   -0.2324   -1.8070   -1.6679 H   0  0  0  0  0  0  0  0  0  0  0  0
   -1.5309    0.4887    1.4181 H   0  0  0  0  0  0  0  0  0  0  0  0
   -2.6926    0.9088   -1.3919 H   0  0  0  0  0  0  0  0  0  0  0  0
   -1.7228    2.0793   -0.4881 H   0  0  0  0  0  0  0  0  0  0  0  0
   -3.6798    1.3420    1.3058 H   0  0  0  0  0  0  0  0  0  0  0  0
   -3.8408    2.6368    0.2204 H   0  0  0  0  0  0  0  0  0  0  0  0
   -2.7349   -3.1039    0.0675 H   0  0  0  0  0  0  0  0  0  0  0  0
    0.8162    1.0158    0.8287 H   0  0  0  0  0  0  0  0  0  0  0  0
    1.5548   -1.9530    0.4815 H   0  0  0  0  0  0  0  0  0  0  0  0
    2.9988   -0.1006    2.1459 H   0  0  0  0  0  0  0  0  0  0  0  0
    3.7434   -1.4355    1.2367 H   0  0  0  0  0  0  0  0  0  0  0  0
    4.3186    1.1612    0.8022 H   0  0  0  0  0  0  0  0  0  0  0  0
    3.4945    0.8834   -1.7496 H   0  0  0  0  0  0  0  0  0  0  0  0
    2.6185    1.9036   -0.5599 H   0  0  0  0  0  0  0  0  0  0  0  0
    1.7108   -0.6707   -1.7230 H   0  0  0  0  0  0  0  0  0  0  0  0
  1  2  1  0
  2  3  1  0
  3  4  1  0
  4  5  1  0
  3  6  1  0
  6  7  2  0
  6  8  1  0
  2  9  1  0
  9 10  1  0
 10 11  1  0
 11 12  1  0
 12 13  1  0
 13 14  1  0
 14  9  1  0
 14 10  1  0
  1 15  1  0
  1 16  1  0
  1 17  1  0
  3 18  1  1
  4 19  1  0
  4 20  1  0
  5 21  1  0
  5 22  1  0
  8 23  1  0
  9 24  1  1
 10 25  1  6
 11 26  1  0
 11 27  1  0
 12 28  1  0
 13 29  1  0
 13 30  1  0
 14 31  1  6
M  END
$$$$

     RDKit          3D

 31 32  0  0  0  0  0  0  0  0999 V2000
    0.7008    0.0952    2.1214 C   0  0  0  0  0  0  0  0  0  0  0  0
    0.4147    0.2206    0.7583 N   0  0  0  0  0  0  0  0  0  0  0  0
    1.4462    0.1657   -0.1915 C   0  0  1  0  0  0  0  0  0  0  0  0
    2.5022    1.2190   -0.0336 C   0  0  0  0  0  0  0  0  0  0  0  0
    3.4668    1.0538   -1.1123 N   0  0  0  0  0  0  0  0  0  0  0  0
    2.0257   -1.1922   -0.2138 C   0  0  0  0  0  0  0  0  0  0  0  0
    1.3406   -2.1923   -0.5247 O   0  0  0  0  0  0  0  0  0  0  0  0
    3.3762   -1.4186    0.1063 O   0  0  0  0  0  0  0  0  0  0  0  0
   -0.9046    0.4643    0.3593 C   0  0  1  0  0  0  0  0  0  0  0  0
   -1.5613   -0.1794   -0.7793 C   0  0  2  0  0  0  0  0  0  0  0  0
   -2.8788    0.4337   -1.2223 C   0  0  0  0  0  0  0  0  0  0  0  0
   -3.8991   -0.2258   -0.4350 N   0  0  0  0  0  0  0  0  0  0  0  0
   -3.2823   -0.3782    0.8990 C   0  0  0  0  0  0  0  0  0  0  0  0
   -1.8753   -0.7158    0.5519 C   0  0  2  0  0  0  0  0  0  0  0  0
    0.9432    1.0790    2.6306 H   0  0  0  0  0  0  0  0  0  0  0  0
    1.5387   -0.6311    2.3000 H   0  0  0  0  0  0  0  0  0  0  0  0
   -0.1762   -0.3025    2.6761 H   0  0  0  0  0  0  0  0  0  0  0  0
    1.0295    0.3077   -1.2553 H   0  0  0  0  0  0  0  0  0  0  0  0
    2.0864    2.2285   -0.0052 H   0  0  0  0  0  0  0  0  0  0  0  0
    2.9670    1.0461    0.9746 H   0  0  0  0  0  0  0  0  0  0  0  0
    3.8291    1.9755   -1.4647 H   0  0  0  0  0  0  0  0  0  0  0  0
    4.2415    0.4193   -0.8369 H   0  0  0  0  0  0  0  0  0  0  0  0
    3.7488   -2.3378   -0.0257 H   0  0  0  0  0  0  0  0  0  0  0  0
   -1.3293    1.4375    0.7169 H   0  0  0  0  0  0  0  0  0  0  0  0
   -1.0158   -0.7349   -1.5551 H   0  0  0  0  0  0  0  0  0  0  0  0
   -3.1000    0.2891   -2.2870 H   0  0  0  0  0  0  0  0  0  0  0  0
   -2.9468    1.5162   -0.9843 H   0  0  0  0  0  0  0  0  0  0  0  0
   -4.0758   -1.2088   -0.7659 H   0  0  0  0  0  0  0  0  0  0  0  0
   -3.3813    0.5391    1.4925 H   0  0  0  0  0  0  0  0  0  0  0  0
   -3.7743   -1.2473    1.4059 H   0  0  0  0  0  0  0  0  0  0  0  0
   -1.4567   -1.7255    0.7591 H   0  0  0  0  0  0  0  0  0  0  0  0
  1  2  1  0
  2  3  1  0
  3  4  1  0
  4  5  1  0
  3  6  1  0
  6  7  2  0
  6  8  1  0
  2  9  1  0
  9 10  1  0
 10 11  1  0
 11 12  1  0
 12 13  1  0
 13 14  1  0
 14  9  1  0
 14 10  1  0
  1 15  1  0
  1 16  1  0
  1 17  1  0
  3 18  1  6
  4 19  1  0
  4 20  1  0
  5 21  1  0
  5 22  1  0
  8 23  1  0
  9 24  1  1
 10 25  1  6
 11 26  1  0
 11 27  1  0
 12 28  1  0
 13 29  1  0
 13 30  1  0
 14 31  1  6
M  END
$$$$

     RDKit          3D

 31 32  0  0  0  0  0  0  0  0999 V2000
   -0.6877   -2.2066    0.3046 C   0  0  0  0  0  0  0  0  0  0  0  0
   -0.6250   -0.8667   -0.2136 N   0  0  0  0  0  0  0  0  0  0  0  0
   -1.7543   -0.0514    0.1256 C   0  0  1  0  0  0  0  0  0  0  0  0
   -1.5008    1.3229   -0.5075 C   0  0  0  0  0  0  0  0  0  0  0  0
   -2.5586    2.2479   -0.2499 N   0  0  0  0  0  0  0  0  0  0  0  0
   -3.0310   -0.5527   -0.3659 C   0  0  0  0  0  0  0  0  0  0  0  0
   -4.0791    0.0896   -0.1026 O   0  0  0  0  0  0  0  0  0  0  0  0
   -3.1642   -1.7068   -1.1149 O   0  0  0  0  0  0  0  0  0  0  0  0
    0.6267   -0.2703    0.1851 C   0  0  1  0  0  0  0  0  0  0  0  0
    1.8703   -0.9029   -0.3169 C   0  0  2  0  0  0  0  0  0  0  0  0
    3.2119   -0.4918    0.2128 C   0  0  0  0  0  0  0  0  0  0  0  0
    3.1605    0.9044    0.5133 N   0  0  0  0  0  0  0  0  0  0  0  0
    2.3286    1.4597   -0.5413 C   0  0  0  0  0  0  0  0  0  0  0  0
    1.3727    0.3917   -0.9440 C   0  0  2  0  0  0  0  0  0  0  0  0
   -0.1617   -2.8663   -0.4360 H   0  0  0  0  0  0  0  0  0  0  0  0
   -0.1441   -2.3183    1.2791 H   0  0  0  0  0  0  0  0  0  0  0  0
   -1.6894   -2.6044    0.4573 H   0  0  0  0  0  0  0  0  0  0  0  0
   -1.7669    0.0817    1.2213 H   0  0  0  0  0  0  0  0  0  0  0  0
   -1.4010    1.1694   -1.6040 H   0  0  0  0  0  0  0  0  0  0  0  0
   -0.5399    1.7023   -0.1126 H   0  0  0  0  0  0  0  0  0  0  0  0
   -2.1709    3.2181   -0.1769 H   0  0  0  0  0  0  0  0  0  0  0  0
   -3.0641    2.0619    0.6329 H   0  0  0  0  0  0  0  0  0  0  0  0
   -4.0573   -2.2076   -1.0177 H   0  0  0  0  0  0  0  0  0  0  0  0
    0.6440    0.1391    1.1952 H   0  0  0  0  0  0  0  0  0  0  0  0
    1.8763   -1.8193   -0.9134 H   0  0  0  0  0  0  0  0  0  0  0  0
    3.5502   -1.1019    1.0723 H   0  0  0  0  0  0  0  0  0  0  0  0
    3.9569   -0.6434   -0.6048 H   0  0  0  0  0  0  0  0  0  0  0  0
    4.1050    1.3416    0.4067 H   0  0  0  0  0  0  0  0  0  0  0  0
    2.9575    1.8218   -1.3994 H   0  0  0  0  0  0  0  0  0  0  0  0
    1.7703    2.3073   -0.0961 H   0  0  0  0  0  0  0  0  0  0  0  0
    0.9651    0.3511   -1.9719 H   0  0  0  0  0  0  0  0  0  0  0  0
  1  2  1  0
  2  3  1  0
  3  4  1  0
  4  5  1  0
  3  6  1  0
  6  7  2  0
  6  8  1  0
  2  9  1  0
  9 10  1  0
 10 11  1  0
 11 12  1  0
 12 13  1  0
 13 14  1  0
 14  9  1  0
 14 10  1  0
  1 15  1  0
  1 16  1  0
  1 17  1  0
  3 18  1  1
  4 19  1  0
  4 20  1  0
  5 21  1  0
  5 22  1  0
  8 23  1  0
  9 24  1  1
 10 25  1  6
 11 26  1  0
 11 27  1  0
 12 28  1  0
 13 29  1  0
 13 30  1  0
 14 31  1  6
M  END
$$$$

     RDKit          3D

 31 32  0  0  0  0  0  0  0  0999 V2000
   -0.8110   -2.2372    0.3415 C   0  0  0  0  0  0  0  0  0  0  0  0
   -0.5485   -0.9213   -0.1933 N   0  0  0  0  0  0  0  0  0  0  0  0
   -1.4620    0.0606    0.3043 C   0  0  1  0  0  0  0  0  0  0  0  0
   -1.9121    1.0128   -0.8153 C   0  0  0  0  0  0  0  0  0  0  0  0
   -2.8267    1.9580   -0.2049 N   0  0  0  0  0  0  0  0  0  0  0  0
   -2.7475   -0.5898    0.6846 C   0  0  0  0  0  0  0  0  0  0  0  0
   -3.5331   -0.0551    1.5012 O   0  0  0  0  0  0  0  0  0  0  0  0
   -3.1080   -1.8105    0.1401 O   0  0  0  0  0  0  0  0  0  0  0  0
    0.8406   -0.5890   -0.0815 C   0  0  1  0  0  0  0  0  0  0  0  0
    1.5796    0.2305   -1.0805 C   0  0  2  0  0  0  0  0  0  0  0  0
    3.0470    0.0216   -1.3016 C   0  0  0  0  0  0  0  0  0  0  0  0
    3.6987    0.6536   -0.2089 N   0  0  0  0  0  0  0  0  0  0  0  0
    2.7706    0.8071    0.8615 C   0  0  0  0  0  0  0  0  0  0  0  0
    1.3823    0.7224    0.2952 C   0  0  2  0  0  0  0  0  0  0  0  0
    0.2013   -2.6945    0.6176 H   0  0  0  0  0  0  0  0  0  0  0  0
   -1.2194   -2.9620   -0.3528 H   0  0  0  0  0  0  0  0  0  0  0  0
   -1.3049   -2.1891    1.3424 H   0  0  0  0  0  0  0  0  0  0  0  0
   -1.1232    0.6174    1.2057 H   0  0  0  0  0  0  0  0  0  0  0  0
   -1.1102    1.5066   -1.3604 H   0  0  0  0  0  0  0  0  0  0  0  0
   -2.5450    0.3650   -1.4982 H   0  0  0  0  0  0  0  0  0  0  0  0
   -2.7571    2.9050   -0.6518 H   0  0  0  0  0  0  0  0  0  0  0  0
   -2.6642    2.0553    0.8397 H   0  0  0  0  0  0  0  0  0  0  0  0
   -3.8817   -2.2755    0.5719 H   0  0  0  0  0  0  0  0  0  0  0  0
    1.4675   -1.4633    0.2766 H   0  0  0  0  0  0  0  0  0  0  0  0
    1.0868    0.7906   -1.8891 H   0  0  0  0  0  0  0  0  0  0  0  0
    3.3909    0.3772   -2.2949 H   0  0  0  0  0  0  0  0  0  0  0  0
    3.2638   -1.0636   -1.2860 H   0  0  0  0  0  0  0  0  0  0  0  0
    4.2084    1.5305   -0.4512 H   0  0  0  0  0  0  0  0  0  0  0  0
    2.9134   -0.0625    1.5579 H   0  0  0  0  0  0  0  0  0  0  0  0
    2.9575    1.7041    1.4751 H   0  0  0  0  0  0  0  0  0  0  0  0
    0.7465    1.5952    0.5042 H   0  0  0  0  0  0  0  0  0  0  0  0
  1  2  1  0
  2  3  1  0
  3  4  1  0
  4  5  1  0
  3  6  1  0
  6  7  2  0
  6  8  1  0
  2  9  1  0
  9 10  1  0
 10 11  1  0
 11 12  1  0
 12 13  1  0
 13 14  1  0
 14  9  1  0
 14 10  1  0
  1 15  1  0
  1 16  1  0
  1 17  1  0
  3 18  1  1
  4 19  1  0
  4 20  1  0
  5 21  1  0
  5 22  1  0
  8 23  1  0
  9 24  1  1
 10 25  1  6
 11 26  1  0
 11 27  1  0
 12 28  1  0
 13 29  1  0
 13 30  1  0
 14 31  1  6
M  END
$$$$

     RDKit          3D

 31 32  0  0  0  0  0  0  0  0999 V2000
   -0.5807   -2.0579   -0.4858 C   0  0  0  0  0  0  0  0  0  0  0  0
   -0.4491   -0.9454    0.4084 N   0  0  0  0  0  0  0  0  0  0  0  0
   -1.5074   -0.0324    0.3216 C   0  0  1  0  0  0  0  0  0  0  0  0
   -1.6707    0.6505   -1.0350 C   0  0  0  0  0  0  0  0  0  0  0  0
   -2.8161    1.5771   -0.9836 N   0  0  0  0  0  0  0  0  0  0  0  0
   -2.7851   -0.8012    0.5353 C   0  0  0  0  0  0  0  0  0  0  0  0
   -2.8289   -2.0203    0.7626 O   0  0  0  0  0  0  0  0  0  0  0  0
   -3.9549   -0.0445    0.4612 O   0  0  0  0  0  0  0  0  0  0  0  0
    0.8420   -0.5598    0.7443 C   0  0  1  0  0  0  0  0  0  0  0  0
    1.7107   -0.0743   -0.4224 C   0  0  2  0  0  0  0  0  0  0  0  0
    3.2048   -0.2666   -0.3078 C   0  0  0  0  0  0  0  0  0  0  0  0
    3.6159    0.9921    0.2974 N   0  0  0  0  0  0  0  0  0  0  0  0
    2.6974    1.0391    1.4448 C   0  0  0  0  0  0  0  0  0  0  0  0
    1.3783    0.8047    0.7550 C   0  0  2  0  0  0  0  0  0  0  0  0
    0.4255   -2.1939   -0.9774 H   0  0  0  0  0  0  0  0  0  0  0  0
   -1.3551   -1.9358   -1.2624 H   0  0  0  0  0  0  0  0  0  0  0  0
   -0.8300   -3.0140    0.0616 H   0  0  0  0  0  0  0  0  0  0  0  0
   -1.5024    0.7705    1.0939 H   0  0  0  0  0  0  0  0  0  0  0  0
   -1.9022   -0.0599   -1.8371 H   0  0  0  0  0  0  0  0  0  0  0  0
   -0.8066    1.3251   -1.2617 H   0  0  0  0  0  0  0  0  0  0  0  0
   -2.6276    2.2917   -0.2209 H   0  0  0  0  0  0  0  0  0  0  0  0
   -2.9111    2.0637   -1.8817 H   0  0  0  0  0  0  0  0  0  0  0  0
   -4.8717   -0.4582    0.3967 H   0  0  0  0  0  0  0  0  0  0  0  0
    1.3985   -1.2952    1.4010 H   0  0  0  0  0  0  0  0  0  0  0  0
    1.2528    0.1220   -1.3885 H   0  0  0  0  0  0  0  0  0  0  0  0
    3.4786   -1.1016    0.3726 H   0  0  0  0  0  0  0  0  0  0  0  0
    3.6026   -0.3856   -1.3309 H   0  0  0  0  0  0  0  0  0  0  0  0
    3.2891    1.7472   -0.3460 H   0  0  0  0  0  0  0  0  0  0  0  0
    2.7647    1.9935    1.9785 H   0  0  0  0  0  0  0  0  0  0  0  0
    2.9721    0.1581    2.0768 H   0  0  0  0  0  0  0  0  0  0  0  0
    0.7666    1.7113    0.6294 H   0  0  0  0  0  0  0  0  0  0  0  0
  1  2  1  0
  2  3  1  0
  3  4  1  0
  4  5  1  0
  3  6  1  0
  6  7  2  0
  6  8  1  0
  2  9  1  0
  9 10  1  0
 10 11  1  0
 11 12  1  0
 12 13  1  0
 13 14  1  0
 14  9  1  0
 14 10  1  0
  1 15  1  0
  1 16  1  0
  1 17  1  0
  3 18  1  1
  4 19  1  0
  4 20  1  0
  5 21  1  0
  5 22  1  0
  8 23  1  0
  9 24  1  1
 10 25  1  6
 11 26  1  0
 11 27  1  0
 12 28  1  0
 13 29  1  0
 13 30  1  0
 14 31  1  6
M  END
$$$$
