
     RDKit          3D

 29 30  0  0  0  0  0  0  0  0999 V2000
    4.3161   -0.4551   -1.2127 C   0  0  0  0  0  0  0  0  0  0  0  0
    3.1525   -0.3305   -0.3590 N   0  0  0  0  0  0  0  0  0  0  0  0
    1.7759   -0.5939   -0.7934 C   0  0  0  0  0  0  0  0  0  0  0  0
    1.0055    0.3551    0.1265 C   0  0  1  0  0  0  0  0  0  0  0  0
   -0.3885    0.0508    0.1788 N   0  0  0  0  0  0  0  0  0  0  0  0
   -1.3072    1.0992   -0.1926 C   0  0  0  0  0  0  0  0  0  0  0  0
   -0.8416    2.2151   -0.5397 O   0  0  0  0  0  0  0  0  0  0  0  0
   -2.7621    0.9014   -0.1770 C   0  0  2  0  0  0  0  0  0  0  0  0
   -3.2415    0.1351    1.0723 C   0  0  0  0  0  0  0  0  0  0  0  0
   -3.3510   -0.4602   -0.2907 C   0  0  1  0  0  0  0  0  0  0  0  0
   -4.6975   -0.5312   -0.8307 N   0  0  0  0  0  0  0  0  0  0  0  0
    1.7161    0.1073    1.4398 C   0  0  0  0  0  0  0  0  0  0  0  0
    3.1328    0.0555    1.0050 C   0  0  0  0  0  0  0  0  0  0  0  0
    4.1206    0.3108    1.7288 O   0  0  0  0  0  0  0  0  0  0  0  0
    4.6109   -1.5113   -1.3697 H   0  0  0  0  0  0  0  0  0  0  0  0
    4.0495   -0.0481   -2.2309 H   0  0  0  0  0  0  0  0  0  0  0  0
    5.1486    0.1851   -0.8589 H   0  0  0  0  0  0  0  0  0  0  0  0
    1.5672   -1.6414   -0.5508 H   0  0  0  0  0  0  0  0  0  0  0  0
    1.6414   -0.3157   -1.8416 H   0  0  0  0  0  0  0  0  0  0  0  0
    1.2339    1.3718   -0.1961 H   0  0  0  0  0  0  0  0  0  0  0  0
   -0.7526   -0.8599    0.4626 H   0  0  0  0  0  0  0  0  0  0  0  0
   -3.3642    1.7677   -0.4786 H   0  0  0  0  0  0  0  0  0  0  0  0
   -2.5048   -0.2841    1.7528 H   0  0  0  0  0  0  0  0  0  0  0  0
   -4.1341    0.5679    1.5611 H   0  0  0  0  0  0  0  0  0  0  0  0
   -2.6968   -1.3169   -0.5251 H   0  0  0  0  0  0  0  0  0  0  0  0
   -5.1545    0.3852   -0.6466 H   0  0  0  0  0  0  0  0  0  0  0  0
   -5.2147   -1.2694   -0.3003 H   0  0  0  0  0  0  0  0  0  0  0  0
    1.4255   -0.8287    1.9261 H   0  0  0  0  0  0  0  0  0  0  0  0
    1.5143    0.9383    2.1404 H   0  0  0  0  0  0  0  0  0  0  0  0
  1  2  1  0
  2  3  1  0
  3  4  1  0
  4  5  1  0
  5  6  1  0
  6  7  2  0
  6  8  1  0
  8  9  1  0
  9 10  1  0
 10 11  1  0
  4 12  1  0
 12 13  1  0
 13 14  2  0
 13  2  1  0
 10  8  1  0
  1 15  1  0
  1 16  1  0
  1 17  1  0
  3 18  1  0
  3 19  1  0
  4 20  1  6
  5 21  1  0
  8 22  1  6
  9 23  1  0
  9 24  1  0
 10 25  1  1
 11 26  1  0
 11 27  1  0
 12 28  1  0
 12 29  1  0
M  END
$$$$

     RDKit          3D

 29 30  0  0  0  0  0  0  0  0999 V2000
   -4.4056   -0.3028   -1.0830 C   0  0  0  0  0  0  0  0  0  0  0  0
   -3.1336    0.0547   -0.4693 N   0  0  0  0  0  0  0  0  0  0  0  0
   -1.8011   -0.4472   -0.8100 C   0  0  0  0  0  0  0  0  0  0  0  0
   -1.0365   -0.1675    0.4584 C   0  0  1  0  0  0  0  0  0  0  0  0
    0.3805   -0.0806    0.2662 N   0  0  0  0  0  0  0  0  0  0  0  0
    1.3471   -0.8525    0.9491 C   0  0  0  0  0  0  0  0  0  0  0  0
    0.9279   -1.6844    1.7957 O   0  0  0  0  0  0  0  0  0  0  0  0
    2.8111   -0.7199    0.7086 C   0  0  2  0  0  0  0  0  0  0  0  0
    3.3092    0.7306    0.5358 C   0  0  0  0  0  0  0  0  0  0  0  0
    3.3329   -0.2676   -0.5918 C   0  0  1  0  0  0  0  0  0  0  0  0
    4.6453   -0.6765   -1.0053 N   0  0  0  0  0  0  0  0  0  0  0  0
   -1.5908    1.1705    0.8758 C   0  0  0  0  0  0  0  0  0  0  0  0
   -3.0396    0.9918    0.5983 C   0  0  0  0  0  0  0  0  0  0  0  0
   -3.9899    1.5706    1.2058 O   0  0  0  0  0  0  0  0  0  0  0  0
   -4.7379    0.4422   -1.8306 H   0  0  0  0  0  0  0  0  0  0  0  0
   -4.3688   -1.2890   -1.5741 H   0  0  0  0  0  0  0  0  0  0  0  0
   -5.1888   -0.3114   -0.2743 H   0  0  0  0  0  0  0  0  0  0  0  0
   -1.3920    0.0449   -1.6920 H   0  0  0  0  0  0  0  0  0  0  0  0
   -1.9160   -1.5430   -0.9820 H   0  0  0  0  0  0  0  0  0  0  0  0
   -1.3472   -0.9050    1.2042 H   0  0  0  0  0  0  0  0  0  0  0  0
    0.7328    0.6077   -0.4348 H   0  0  0  0  0  0  0  0  0  0  0  0
    3.4685   -1.3746    1.3002 H   0  0  0  0  0  0  0  0  0  0  0  0
    2.5173    1.5141    0.4368 H   0  0  0  0  0  0  0  0  0  0  0  0
    4.2378    1.0098    1.0479 H   0  0  0  0  0  0  0  0  0  0  0  0
    2.5914   -0.1505   -1.4167 H   0  0  0  0  0  0  0  0  0  0  0  0
    4.8490   -0.4510   -2.0019 H   0  0  0  0  0  0  0  0  0  0  0  0
    5.3944   -0.2266   -0.4347 H   0  0  0  0  0  0  0  0  0  0  0  0
   -1.3938    1.3741    1.9446 H   0  0  0  0  0  0  0  0  0  0  0  0
   -1.2034    1.9388    0.1965 H   0  0  0  0  0  0  0  0  0  0  0  0
  1  2  1  0
  2  3  1  0
  3  4  1  0
  4  5  1  0
  5  6  1  0
  6  7  2  0
  6  8  1  0
  8  9  1  0
  9 10  1  0
 10 11  1  0
  4 12  1  0
 12 13  1  0
 13 14  2  0
 13  2  1  0
 10  8  1  0
  1 15  1  0
  1 16  1  0
  1 17  1  0
  3 18  1  0
  3 19  1  0
  4 20  1  1
  5 21  1  0
  8 22  1  1
  9 23  1  0
  9 24  1  0
 10 25  1  6
 11 26  1  0
 11 27  1  0
 12 28  1  0
 12 29  1  0
M  END
$$$$

     RDKit          3D

 29 30  0  0  0  0  0  0  0  0999 V2000
   -4.6753    0.3194   -0.6677 C   0  0  0  0  0  0  0  0  0  0  0  0
   -3.3361    0.6763   -0.2109 N   0  0  0  0  0  0  0  0  0  0  0  0
   -2.0787    0.4205   -0.9221 C   0  0  0  0  0  0  0  0  0  0  0  0
   -1.0954    0.4068    0.2119 C   0  0  1  0  0  0  0  0  0  0  0  0
    0.2670    0.5514   -0.2025 N   0  0  0  0  0  0  0  0  0  0  0  0
    1.2962   -0.3757    0.0919 C   0  0  0  0  0  0  0  0  0  0  0  0
    1.0035   -1.3938    0.7596 O   0  0  0  0  0  0  0  0  0  0  0  0
    2.6892   -0.1662   -0.3680 C   0  0  2  0  0  0  0  0  0  0  0  0
    3.5566   -1.3874   -0.6025 C   0  0  0  0  0  0  0  0  0  0  0  0
    3.7721   -0.5544    0.6066 C   0  0  1  0  0  0  0  0  0  0  0  0
    4.9678    0.2554    0.7063 N   0  0  0  0  0  0  0  0  0  0  0  0
   -1.5885    1.5306    1.0822 C   0  0  0  0  0  0  0  0  0  0  0  0
   -3.0601    1.3368    1.0154 C   0  0  0  0  0  0  0  0  0  0  0  0
   -3.8838    1.6981    1.8919 O   0  0  0  0  0  0  0  0  0  0  0  0
   -5.2335    1.2219   -0.9687 H   0  0  0  0  0  0  0  0  0  0  0  0
   -5.2651   -0.1616    0.1510 H   0  0  0  0  0  0  0  0  0  0  0  0
   -4.6317   -0.3402   -1.5539 H   0  0  0  0  0  0  0  0  0  0  0  0
   -1.8891    1.2624   -1.5924 H   0  0  0  0  0  0  0  0  0  0  0  0
   -2.1232   -0.5329   -1.4826 H   0  0  0  0  0  0  0  0  0  0  0  0
   -1.2168   -0.5327    0.7920 H   0  0  0  0  0  0  0  0  0  0  0  0
    0.5519    1.3969   -0.7672 H   0  0  0  0  0  0  0  0  0  0  0  0
    2.9319    0.7375   -0.9564 H   0  0  0  0  0  0  0  0  0  0  0  0
    3.0605   -2.3780   -0.4947 H   0  0  0  0  0  0  0  0  0  0  0  0
    4.3206   -1.3572   -1.4083 H   0  0  0  0  0  0  0  0  0  0  0  0
    3.4579   -1.0010    1.5772 H   0  0  0  0  0  0  0  0  0  0  0  0
    5.8333   -0.2864    0.4562 H   0  0  0  0  0  0  0  0  0  0  0  0
    4.9482    1.0887    0.0942 H   0  0  0  0  0  0  0  0  0  0  0  0
   -1.1969    1.4429    2.1144 H   0  0  0  0  0  0  0  0  0  0  0  0
   -1.3825    2.5323    0.6472 H   0  0  0  0  0  0  0  0  0  0  0  0
  1  2  1  0
  2  3  1  0
  3  4  1  0
  4  5  1  0
  5  6  1  0
  6  7  2  0
  6  8  1  0
  8  9  1  0
  9 10  1  0
 10 11  1  0
  4 12  1  0
 12 13  1  0
 13 14  2  0
 13  2  1  0
 10  8  1  0
  1 15  1  0
  1 16  1  0
  1 17  1  0
  3 18  1  0
  3 19  1  0
  4 20  1  1
  5 21  1  0
  8 22  1  6
  9 23  1  0
  9 24  1  0
 10 25  1  1
 11 26  1  0
 11 27  1  0
 12 28  1  0
 12 29  1  0
M  END
$$$$

     RDKit          3D

 29 30  0  0  0  0  0  0  0  0999 V2000
    4.5564    0.2480    0.6727 C   0  0  0  0  0  0  0  0  0  0  0  0
    3.3001    0.4293   -0.0490 N   0  0  0  0  0  0  0  0  0  0  0  0
    2.0119    0.6221    0.5782 C   0  0  0  0  0  0  0  0  0  0  0  0
    1.0865   -0.1061   -0.3901 C   0  0  1  0  0  0  0  0  0  0  0  0
   -0.2514    0.3099   -0.1194 N   0  0  0  0  0  0  0  0  0  0  0  0
   -1.2929   -0.5878    0.2057 C   0  0  0  0  0  0  0  0  0  0  0  0
   -1.0159   -1.8106    0.2561 O   0  0  0  0  0  0  0  0  0  0  0  0
   -2.6799   -0.0910    0.4802 C   0  0  2  0  0  0  0  0  0  0  0  0
   -3.5775   -0.8651    1.3786 C   0  0  0  0  0  0  0  0  0  0  0  0
   -3.7730   -0.9347   -0.1163 C   0  0  1  0  0  0  0  0  0  0  0  0
   -4.9047   -0.2495   -0.7148 N   0  0  0  0  0  0  0  0  0  0  0  0
    1.5985    0.4266   -1.7227 C   0  0  0  0  0  0  0  0  0  0  0  0
    3.0795    0.4549   -1.4457 C   0  0  0  0  0  0  0  0  0  0  0  0
    3.9710    0.4949   -2.3247 O   0  0  0  0  0  0  0  0  0  0  0  0
    4.5898    0.9850    1.5125 H   0  0  0  0  0  0  0  0  0  0  0  0
    5.3931    0.5281   -0.0271 H   0  0  0  0  0  0  0  0  0  0  0  0
    4.6414   -0.7883    1.0016 H   0  0  0  0  0  0  0  0  0  0  0  0
    1.9914    0.1468    1.5770 H   0  0  0  0  0  0  0  0  0  0  0  0
    1.7374    1.6913    0.5984 H   0  0  0  0  0  0  0  0  0  0  0  0
    1.2553   -1.1827   -0.3281 H   0  0  0  0  0  0  0  0  0  0  0  0
   -0.4731    1.3271   -0.1633 H   0  0  0  0  0  0  0  0  0  0  0  0
   -2.8011    1.0015    0.4061 H   0  0  0  0  0  0  0  0  0  0  0  0
   -3.1413   -1.7277    1.9171 H   0  0  0  0  0  0  0  0  0  0  0  0
   -4.2983   -0.2694    1.9636 H   0  0  0  0  0  0  0  0  0  0  0  0
   -3.5194   -1.8980   -0.6026 H   0  0  0  0  0  0  0  0  0  0  0  0
   -5.5732   -0.0169    0.0265 H   0  0  0  0  0  0  0  0  0  0  0  0
   -4.5657    0.6367   -1.1800 H   0  0  0  0  0  0  0  0  0  0  0  0
    1.2803    1.4695   -1.8584 H   0  0  0  0  0  0  0  0  0  0  0  0
    1.3748   -0.2440   -2.5535 H   0  0  0  0  0  0  0  0  0  0  0  0
  1  2  1  0
  2  3  1  0
  3  4  1  0
  4  5  1  0
  5  6  1  0
  6  7  2  0
  6  8  1  0
  8  9  1  0
  9 10  1  0
 10 11  1  0
  4 12  1  0
 12 13  1  0
 13 14  2  0
 13  2  1  0
 10  8  1  0
  1 15  1  0
  1 16  1  0
  1 17  1  0
  3 18  1  0
  3 19  1  0
  4 20  1  6
  5 21  1  0
  8 22  1  1
  9 23  1  0
  9 24  1  0
 10 25  1  6
 11 26  1  0
 11 27  1  0
 12 28  1  0
 12 29  1  0
M  END
$$$$

     RDKit          3D

 29 30  0  0  0  0  0  0  0  0999 V2000
   -3.9024    1.3075   -0.9872 C   0  0  0  0  0  0  0  0  0  0  0  0
   -3.0273    0.5239   -0.1399 N   0  0  0  0  0  0  0  0  0  0  0  0
   -2.2684   -0.6042   -0.5973 C   0  0  0  0  0  0  0  0  0  0  0  0
   -1.1905   -0.8642    0.4347 C   0  0  1  0  0  0  0  0  0  0  0  0
   -0.0111   -0.1121    0.1380 N   0  0  0  0  0  0  0  0  0  0  0  0
    1.2440   -0.7577   -0.0836 C   0  0  0  0  0  0  0  0  0  0  0  0
    1.2936   -1.9970   -0.0134 O   0  0  0  0  0  0  0  0  0  0  0  0
    2.4640    0.0354   -0.3914 C   0  0  2  0  0  0  0  0  0  0  0  0
    3.3481   -0.5601   -1.4504 C   0  0  0  0  0  0  0  0  0  0  0  0
    3.8036   -0.4781   -0.0263 C   0  0  1  0  0  0  0  0  0  0  0  0
    4.8369    0.4617    0.3384 N   0  0  0  0  0  0  0  0  0  0  0  0
   -1.7847   -0.3474    1.7089 C   0  0  0  0  0  0  0  0  0  0  0  0
   -2.7511    0.6970    1.2442 C   0  0  0  0  0  0  0  0  0  0  0  0
   -3.2577    1.6022    1.9499 O   0  0  0  0  0  0  0  0  0  0  0  0
   -4.4281    0.6279   -1.6989 H   0  0  0  0  0  0  0  0  0  0  0  0
   -3.3362    2.0622   -1.5896 H   0  0  0  0  0  0  0  0  0  0  0  0
   -4.6788    1.7845   -0.3724 H   0  0  0  0  0  0  0  0  0  0  0  0
   -2.9509   -1.4718   -0.7114 H   0  0  0  0  0  0  0  0  0  0  0  0
   -1.7528   -0.3352   -1.5426 H   0  0  0  0  0  0  0  0  0  0  0  0
   -0.9444   -1.9396    0.4530 H   0  0  0  0  0  0  0  0  0  0  0  0
   -0.0104    0.9290    0.0702 H   0  0  0  0  0  0  0  0  0  0  0  0
    2.3114    1.1361   -0.4309 H   0  0  0  0  0  0  0  0  0  0  0  0
    3.8023    0.1633   -2.1763 H   0  0  0  0  0  0  0  0  0  0  0  0
    3.0941   -1.5440   -1.8776 H   0  0  0  0  0  0  0  0  0  0  0  0
    3.9029   -1.4535    0.5271 H   0  0  0  0  0  0  0  0  0  0  0  0
    4.8920    1.2228   -0.3731 H   0  0  0  0  0  0  0  0  0  0  0  0
    4.6093    0.8405    1.2992 H   0  0  0  0  0  0  0  0  0  0  0  0
   -1.0263    0.1700    2.3338 H   0  0  0  0  0  0  0  0  0  0  0  0
   -2.2812   -1.0992    2.3248 H   0  0  0  0  0  0  0  0  0  0  0  0
  1  2  1  0
  2  3  1  0
  3  4  1  0
  4  5  1  0
  5  6  1  0
  6  7  2  0
  6  8  1  0
  8  9  1  0
  9 10  1  0
 10 11  1  0
  4 12  1  0
 12 13  1  0
 13 14  2  0
 13  2  1  0
 10  8  1  0
  1 15  1  0
  1 16  1  0
  1 17  1  0
  3 18  1  0
  3 19  1  0
  4 20  1  1
  5 21  1  0
  8 22  1  6
  9 23  1  0
  9 24  1  0
 10 25  1  1
 11 26  1  0
 11 27  1  0
 12 28  1  0
 12 29  1  0
M  END
$$$$

     RDKit          3D

 29 30  0  0  0  0  0  0  0  0999 V2000
   -4.1102    1.4632   -0.2567 C   0  0  0  0  0  0  0  0  0  0  0  0
   -3.1285    0.4383    0.0330 N   0  0  0  0  0  0  0  0  0  0  0  0
   -2.0859    0.0299   -0.8625 C   0  0  0  0  0  0  0  0  0  0  0  0
   -1.1768   -0.8808   -0.0835 C   0  0  1  0  0  0  0  0  0  0  0  0
    0.0408   -0.1749    0.2042 N   0  0  0  0  0  0  0  0  0  0  0  0
    1.3154   -0.5991   -0.2593 C   0  0  0  0  0  0  0  0  0  0  0  0
    1.4261   -1.6369   -0.9578 O   0  0  0  0  0  0  0  0  0  0  0  0
    2.5517    0.1539    0.0567 C   0  0  2  0  0  0  0  0  0  0  0  0
    3.4826    0.3060   -1.1522 C   0  0  0  0  0  0  0  0  0  0  0  0
    3.8654   -0.4988    0.0854 C   0  0  1  0  0  0  0  0  0  0  0  0
    4.9051    0.1401    0.8804 N   0  0  0  0  0  0  0  0  0  0  0  0
   -1.9603   -1.2451    1.1321 C   0  0  0  0  0  0  0  0  0  0  0  0
   -3.0782   -0.2895    1.2424 C   0  0  0  0  0  0  0  0  0  0  0  0
   -3.8419   -0.1408    2.2119 O   0  0  0  0  0  0  0  0  0  0  0  0
   -5.0701    1.2841    0.2760 H   0  0  0  0  0  0  0  0  0  0  0  0
   -3.7076    2.4154    0.1724 H   0  0  0  0  0  0  0  0  0  0  0  0
   -4.3166    1.5474   -1.3444 H   0  0  0  0  0  0  0  0  0  0  0  0
   -2.4839   -0.4627   -1.7893 H   0  0  0  0  0  0  0  0  0  0  0  0
   -1.5400    0.9306   -1.2141 H   0  0  0  0  0  0  0  0  0  0  0  0
   -1.0116   -1.7836   -0.7010 H   0  0  0  0  0  0  0  0  0  0  0  0
   -0.0094    0.6914    0.7812 H   0  0  0  0  0  0  0  0  0  0  0  0
    2.3904    1.0605    0.6763 H   0  0  0  0  0  0  0  0  0  0  0  0
    3.2851   -0.3064   -2.0451 H   0  0  0  0  0  0  0  0  0  0  0  0
    3.8990    1.3040   -1.2924 H   0  0  0  0  0  0  0  0  0  0  0  0
    3.9586   -1.6136   -0.0396 H   0  0  0  0  0  0  0  0  0  0  0  0
    4.5108    0.8637    1.5208 H   0  0  0  0  0  0  0  0  0  0  0  0
    5.6683    0.5239    0.2810 H   0  0  0  0  0  0  0  0  0  0  0  0
   -2.4181   -2.2580    0.9969 H   0  0  0  0  0  0  0  0  0  0  0  0
   -1.3603   -1.2625    2.0620 H   0  0  0  0  0  0  0  0  0  0  0  0
  1  2  1  0
  2  3  1  0
  3  4  1  0
  4  5  1  0
  5  6  1  0
  6  7  2  0
  6  8  1  0
  8  9  1  0
  9 10  1  0
 10 11  1  0
  4 12  1  0
 12 13  1  0
 13 14  2  0
 13  2  1  0
 10  8  1  0
  1 15  1  0
  1 16  1  0
  1 17  1  0
  3 18  1  0
  3 19  1  0
  4 20  1  6
  5 21  1  0
  8 22  1  1
  9 23  1  0
  9 24  1  0
 10 25  1  6
 11 26  1  0
 11 27  1  0
 12 28  1  0
 12 29  1  0
M  END
$$$$

     RDKit          3D

 29 30  0  0  0  0  0  0  0  0999 V2000
   -4.3133    1.2027   -0.5747 C   0  0  0  0  0  0  0  0  0  0  0  0
   -3.1171    0.5783   -0.0472 N   0  0  0  0  0  0  0  0  0  0  0  0
   -1.7662    0.8045   -0.5303 C   0  0  0  0  0  0  0  0  0  0  0  0
   -1.0483   -0.3999   -0.0201 C   0  0  1  0  0  0  0  0  0  0  0  0
    0.3774   -0.2891   -0.0127 N   0  0  0  0  0  0  0  0  0  0  0  0
    1.2593   -1.1500   -0.6899 C   0  0  0  0  0  0  0  0  0  0  0  0
    0.7938   -2.0848   -1.3515 O   0  0  0  0  0  0  0  0  0  0  0  0
    2.7448   -0.9848   -0.6456 C   0  0  2  0  0  0  0  0  0  0  0  0
    3.2512   -0.5961    0.7375 C   0  0  0  0  0  0  0  0  0  0  0  0
    3.3150    0.3608   -0.4371 C   0  0  1  0  0  0  0  0  0  0  0  0
    4.6684    0.6135   -0.8918 N   0  0  0  0  0  0  0  0  0  0  0  0
   -1.6578   -0.6058    1.3409 C   0  0  0  0  0  0  0  0  0  0  0  0
   -3.1122   -0.3526    1.0304 C   0  0  0  0  0  0  0  0  0  0  0  0
   -4.0653   -0.8820    1.6318 O   0  0  0  0  0  0  0  0  0  0  0  0
   -4.0742    1.7128   -1.5293 H   0  0  0  0  0  0  0  0  0  0  0  0
   -4.7052    1.9692    0.1365 H   0  0  0  0  0  0  0  0  0  0  0  0
   -5.0977    0.4504   -0.8195 H   0  0  0  0  0  0  0  0  0  0  0  0
   -1.7338    0.8771   -1.6414 H   0  0  0  0  0  0  0  0  0  0  0  0
   -1.4051    1.7324   -0.0437 H   0  0  0  0  0  0  0  0  0  0  0  0
   -1.3516   -1.2712   -0.6437 H   0  0  0  0  0  0  0  0  0  0  0  0
    0.8294    0.4927    0.5374 H   0  0  0  0  0  0  0  0  0  0  0  0
    3.3553   -1.7148   -1.2125 H   0  0  0  0  0  0  0  0  0  0  0  0
    2.5259   -0.3806    1.5350 H   0  0  0  0  0  0  0  0  0  0  0  0
    4.1649   -1.1170    1.0652 H   0  0  0  0  0  0  0  0  0  0  0  0
    2.6772    1.2621   -0.4195 H   0  0  0  0  0  0  0  0  0  0  0  0
    5.2777   -0.1978   -0.6645 H   0  0  0  0  0  0  0  0  0  0  0  0
    5.0940    1.4322   -0.3705 H   0  0  0  0  0  0  0  0  0  0  0  0
   -1.5097   -1.6220    1.7380 H   0  0  0  0  0  0  0  0  0  0  0  0
   -1.3766    0.1597    2.0689 H   0  0  0  0  0  0  0  0  0  0  0  0
  1  2  1  0
  2  3  1  0
  3  4  1  0
  4  5  1  0
  5  6  1  0
  6  7  2  0
  6  8  1  0
  8  9  1  0
  9 10  1  0
 10 11  1  0
  4 12  1  0
 12 13  1  0
 13 14  2  0
 13  2  1  0
 10  8  1  0
  1 15  1  0
  1 16  1  0
  1 17  1  0
  3 18  1  0
  3 19  1  0
  4 20  1  6
  5 21  1  0
  8 22  1  6
  9 23  1  0
  9 24  1  0
 10 25  1  1
 11 26  1  0
 11 27  1  0
 12 28  1  0
 12 29  1  0
M  END
$$$$

     RDKit          3D

 29 30  0  0  0  0  0  0  0  0999 V2000
   -4.5929    0.4901   -0.7362 C   0  0  0  0  0  0  0  0  0  0  0  0
   -3.2546    0.2755   -0.2310 N   0  0  0  0  0  0  0  0  0  0  0  0
   -2.2792   -0.6197   -0.8503 C   0  0  0  0  0  0  0  0  0  0  0  0
   -1.1443   -0.7316    0.1129 C   0  0  1  0  0  0  0  0  0  0  0  0
    0.0269    0.0324   -0.2954 N   0  0  0  0  0  0  0  0  0  0  0  0
    1.3126   -0.5569   -0.3697 C   0  0  0  0  0  0  0  0  0  0  0  0
    1.4260   -1.7624   -0.0742 O   0  0  0  0  0  0  0  0  0  0  0  0
    2.5279    0.1977   -0.7835 C   0  0  2  0  0  0  0  0  0  0  0  0
    3.6482   -0.4961   -1.4712 C   0  0  0  0  0  0  0  0  0  0  0  0
    3.7739   -0.0985   -0.0121 C   0  0  1  0  0  0  0  0  0  0  0  0
    4.7492    0.9176    0.2361 N   0  0  0  0  0  0  0  0  0  0  0  0
   -1.6292   -0.0732    1.4115 C   0  0  0  0  0  0  0  0  0  0  0  0
   -2.6634    0.8740    0.9189 C   0  0  0  0  0  0  0  0  0  0  0  0
   -2.9652    1.9803    1.4071 O   0  0  0  0  0  0  0  0  0  0  0  0
   -5.2720   -0.3630   -0.4673 H   0  0  0  0  0  0  0  0  0  0  0  0
   -5.0415    1.3944   -0.2598 H   0  0  0  0  0  0  0  0  0  0  0  0
   -4.6117    0.5815   -1.8405 H   0  0  0  0  0  0  0  0  0  0  0  0
   -1.9601   -0.2421   -1.8388 H   0  0  0  0  0  0  0  0  0  0  0  0
   -2.7376   -1.6193   -1.0057 H   0  0  0  0  0  0  0  0  0  0  0  0
   -0.8311   -1.7733    0.3294 H   0  0  0  0  0  0  0  0  0  0  0  0
   -0.0577    1.0416   -0.5447 H   0  0  0  0  0  0  0  0  0  0  0  0
    2.4052    1.2736   -1.0435 H   0  0  0  0  0  0  0  0  0  0  0  0
    3.6477   -1.5947   -1.6157 H   0  0  0  0  0  0  0  0  0  0  0  0
    4.2543    0.0507   -2.2237 H   0  0  0  0  0  0  0  0  0  0  0  0
    3.7093   -0.8737    0.7712 H   0  0  0  0  0  0  0  0  0  0  0  0
    4.7895    1.2780    1.1911 H   0  0  0  0  0  0  0  0  0  0  0  0
    5.6343    0.8218   -0.2655 H   0  0  0  0  0  0  0  0  0  0  0  0
   -0.8000    0.4662    1.9065 H   0  0  0  0  0  0  0  0  0  0  0  0
   -2.0645   -0.8710    2.0419 H   0  0  0  0  0  0  0  0  0  0  0  0
  1  2  1  0
  2  3  1  0
  3  4  1  0
  4  5  1  0
  5  6  1  0
  6  7  2  0
  6  8  1  0
  8  9  1  0
  9 10  1  0
 10 11  1  0
  4 12  1  0
 12 13  1  0
 13 14  2  0
 13  2  1  0
 10  8  1  0
  1 15  1  0
  1 16  1  0
  1 17  1  0
  3 18  1  0
  3 19  1  0
  4 20  1  1
  5 21  1  0
  8 22  1  6
  9 23  1  0
  9 24  1  0
 10 25  1  1
 11 26  1  0
 11 27  1  0
 12 28  1  0
 12 29  1  0
M  END
$$$$
