
     RDKit          3D

 26 27  0  0  0  0  0  0  0  0999 V2000
    1.1988   -2.0874   -1.3184 C   0  0  0  0  0  0  0  0  0  0  0  0
    0.6028   -1.2469   -0.3001 N   0  0  0  0  0  0  0  0  0  0  0  0
    1.4020   -0.9575    0.8723 C   0  0  0  0  0  0  0  0  0  0  0  0
    2.2151    0.2847    0.6652 C   0  0  0  0  0  0  0  0  0  0  0  0
    3.0432    0.7915    1.5754 N   0  0  0  0  0  0  0  0  0  0  0  0
    3.6102    1.8871    1.0920 N   0  0  0  0  0  0  0  0  0  0  0  0
    3.1328    2.0649   -0.1276 N   0  0  0  0  0  0  0  0  0  0  0  0
    2.2701    1.0847   -0.4074 N   0  0  0  0  0  0  0  0  0  0  0  0
   -0.7150   -0.7427   -0.4759 C   0  0  0  0  0  0  0  0  0  0  0  0
   -1.3542   -1.0344   -1.5203 O   0  0  0  0  0  0  0  0  0  0  0  0
   -1.3945    0.1132    0.4995 C   0  0  2  0  0  0  0  0  0  0  0  0
   -2.8597   -0.2948    0.7453 C   0  0  0  0  0  0  0  0  0  0  0  0
   -2.4960    1.0232    0.1478 C   0  0  2  0  0  0  0  0  0  0  0  0
   -2.8255    1.3182   -1.2331 N   0  0  0  0  0  0  0  0  0  0  0  0
    1.4672   -1.4835   -2.2084 H   0  0  0  0  0  0  0  0  0  0  0  0
    0.4420   -2.8523   -1.6565 H   0  0  0  0  0  0  0  0  0  0  0  0
    2.0512   -2.6761   -0.9323 H   0  0  0  0  0  0  0  0  0  0  0  0
    0.7956   -0.8724    1.7982 H   0  0  0  0  0  0  0  0  0  0  0  0
    2.1161   -1.7912    1.0278 H   0  0  0  0  0  0  0  0  0  0  0  0
    3.3857    2.8435   -0.7717 H   0  0  0  0  0  0  0  0  0  0  0  0
   -0.7888    0.3451    1.4091 H   0  0  0  0  0  0  0  0  0  0  0  0
   -3.3208   -1.0161    0.0708 H   0  0  0  0  0  0  0  0  0  0  0  0
   -3.2001   -0.3670    1.7956 H   0  0  0  0  0  0  0  0  0  0  0  0
   -2.6455    1.8918    0.8230 H   0  0  0  0  0  0  0  0  0  0  0  0
   -2.2998    2.2112   -1.4699 H   0  0  0  0  0  0  0  0  0  0  0  0
   -3.8327    1.5630   -1.3656 H   0  0  0  0  0  0  0  0  0  0  0  0
  1  2  1  0
  2  3  1  0
  3  4  1  0
  4  5  1  0
  5  6  2  0
  6  7  1  0
  7  8  1  0
  2  9  1  0
  9 10  2  0
  9 11  1  0
 11 12  1  0
 12 13  1  0
 13 14  1  0
  8  4  2  0
 13 11  1  0
  1 15  1  0
  1 16  1  0
  1 17  1  0
  3 18  1  0
  3 19  1  0
  7 20  1  0
 11 21  1  1
 12 22  1  0
 12 23  1  0
 13 24  1  1
 14 25  1  0
 14 26  1  0
M  END
$$$$

     RDKit          3D

 26 27  0  0  0  0  0  0  0  0999 V2000
    0.5010   -2.4960    0.6433 C   0  0  0  0  0  0  0  0  0  0  0  0
    0.0350   -1.1259    0.2661 N   0  0  0  0  0  0  0  0  0  0  0  0
    0.6878   -0.0900    1.0100 C   0  0  0  0  0  0  0  0  0  0  0  0
    1.9148    0.3832    0.2891 C   0  0  0  0  0  0  0  0  0  0  0  0
    2.4016   -0.0477   -0.8842 N   0  0  0  0  0  0  0  0  0  0  0  0
    3.5121    0.6599   -1.1362 N   0  0  0  0  0  0  0  0  0  0  0  0
    3.7201    1.5152   -0.1466 N   0  0  0  0  0  0  0  0  0  0  0  0
    2.7397    1.3398    0.7202 N   0  0  0  0  0  0  0  0  0  0  0  0
   -0.9244   -1.0253   -0.7484 C   0  0  0  0  0  0  0  0  0  0  0  0
   -1.2829   -2.1669   -1.2818 O   0  0  0  0  0  0  0  0  0  0  0  0
   -1.6023    0.1193   -1.3323 C   0  0  2  0  0  0  0  0  0  0  0  0
   -1.4488    1.5264   -0.9972 C   0  0  0  0  0  0  0  0  0  0  0  0
   -2.5927    0.8337   -0.3671 C   0  0  2  0  0  0  0  0  0  0  0  0
   -2.5644    0.5549    1.0152 N   0  0  0  0  0  0  0  0  0  0  0  0
    1.5891   -2.4549    0.8157 H   0  0  0  0  0  0  0  0  0  0  0  0
    0.2150   -3.1790   -0.1699 H   0  0  0  0  0  0  0  0  0  0  0  0
   -0.0842   -2.7604    1.5489 H   0  0  0  0  0  0  0  0  0  0  0  0
    0.0964    0.7574    1.3301 H   0  0  0  0  0  0  0  0  0  0  0  0
    1.1091   -0.5261    1.9850 H   0  0  0  0  0  0  0  0  0  0  0  0
    4.5198    2.1761   -0.1110 H   0  0  0  0  0  0  0  0  0  0  0  0
   -2.1331   -0.1535   -2.3103 H   0  0  0  0  0  0  0  0  0  0  0  0
   -0.6422    1.9878   -0.4324 H   0  0  0  0  0  0  0  0  0  0  0  0
   -1.7884    2.2382   -1.8307 H   0  0  0  0  0  0  0  0  0  0  0  0
   -3.6247    0.9458   -0.8082 H   0  0  0  0  0  0  0  0  0  0  0  0
   -2.1579   -0.3339    1.3257 H   0  0  0  0  0  0  0  0  0  0  0  0
   -2.1954    1.3217    1.6070 H   0  0  0  0  0  0  0  0  0  0  0  0
  1  2  1  0
  2  3  1  0
  3  4  1  0
  4  5  1  0
  5  6  2  0
  6  7  1  0
  7  8  1  0
  2  9  1  0
  9 10  2  0
  9 11  1  0
 11 12  1  0
 12 13  1  0
 13 14  1  0
  8  4  2  0
 13 11  1  0
  1 15  1  0
  1 16  1  0
  1 17  1  0
  3 18  1  0
  3 19  1  0
  7 20  1  0
 11 21  1  6
 12 22  1  0
 12 23  1  0
 13 24  1  6
 14 25  1  0
 14 26  1  0
M  END
$$$$

     RDKit          3D

 26 27  0  0  0  0  0  0  0  0999 V2000
    1.1799   -1.3129   -2.0385 C   0  0  0  0  0  0  0  0  0  0  0  0
    0.5997   -1.0702   -0.7492 N   0  0  0  0  0  0  0  0  0  0  0  0
    1.3434   -1.3807    0.4378 C   0  0  0  0  0  0  0  0  0  0  0  0
    2.1217   -0.1745    0.8122 C   0  0  0  0  0  0  0  0  0  0  0  0
    3.3584    0.1456    0.4198 N   0  0  0  0  0  0  0  0  0  0  0  0
    3.6913    1.3154    0.9844 N   0  0  0  0  0  0  0  0  0  0  0  0
    2.6886    1.7316    1.7206 N   0  0  0  0  0  0  0  0  0  0  0  0
    1.7126    0.8173    1.6211 N   0  0  0  0  0  0  0  0  0  0  0  0
   -0.6949   -0.5295   -0.6496 C   0  0  0  0  0  0  0  0  0  0  0  0
   -1.3665   -0.2495   -1.7005 O   0  0  0  0  0  0  0  0  0  0  0  0
   -1.3756   -0.2446    0.6376 C   0  0  2  0  0  0  0  0  0  0  0  0
   -2.8773   -0.4293    0.6396 C   0  0  0  0  0  0  0  0  0  0  0  0
   -2.3181    0.9447    0.6955 C   0  0  2  0  0  0  0  0  0  0  0  0
   -2.2890    1.7777   -0.4831 N   0  0  0  0  0  0  0  0  0  0  0  0
    0.4306   -1.6981   -2.7610 H   0  0  0  0  0  0  0  0  0  0  0  0
    2.0649   -1.9855   -1.9952 H   0  0  0  0  0  0  0  0  0  0  0  0
    1.5371   -0.3428   -2.4504 H   0  0  0  0  0  0  0  0  0  0  0  0
    0.7134   -1.6959    1.2919 H   0  0  0  0  0  0  0  0  0  0  0  0
    2.0698   -2.1963    0.2306 H   0  0  0  0  0  0  0  0  0  0  0  0
    2.6294    2.5899    2.2799 H   0  0  0  0  0  0  0  0  0  0  0  0
   -0.8748   -0.4528    1.5920 H   0  0  0  0  0  0  0  0  0  0  0  0
   -3.3346   -0.8249   -0.3065 H   0  0  0  0  0  0  0  0  0  0  0  0
   -3.3489   -0.8449    1.5400 H   0  0  0  0  0  0  0  0  0  0  0  0
   -2.4672    1.4791    1.6422 H   0  0  0  0  0  0  0  0  0  0  0  0
   -3.2457    1.9139   -0.8756 H   0  0  0  0  0  0  0  0  0  0  0  0
   -1.9481    2.7172   -0.2078 H   0  0  0  0  0  0  0  0  0  0  0  0
  1  2  1  0
  2  3  1  0
  3  4  1  0
  4  5  1  0
  5  6  2  0
  6  7  1  0
  7  8  1  0
  2  9  1  0
  9 10  2  0
  9 11  1  0
 11 12  1  0
 12 13  1  0
 13 14  1  0
  8  4  2  0
 13 11  1  0
  1 15  1  0
  1 16  1  0
  1 17  1  0
  3 18  1  0
  3 19  1  0
  7 20  1  0
 11 21  1  1
 12 22  1  0
 12 23  1  0
 13 24  1  1
 14 25  1  0
 14 26  1  0
M  END
$$$$

     RDKit          3D

 26 27  0  0  0  0  0  0  0  0999 V2000
   -0.4171   -2.6859   -0.2458 C   0  0  0  0  0  0  0  0  0  0  0  0
   -0.2377   -1.3075    0.1505 N   0  0  0  0  0  0  0  0  0  0  0  0
   -1.2443   -0.7459    1.0375 C   0  0  0  0  0  0  0  0  0  0  0  0
   -2.3547   -0.1267    0.2569 C   0  0  0  0  0  0  0  0  0  0  0  0
   -3.4870   -0.7548   -0.1622 N   0  0  0  0  0  0  0  0  0  0  0  0
   -4.2329    0.1102   -0.8210 N   0  0  0  0  0  0  0  0  0  0  0  0
   -3.5973    1.2816   -0.8309 N   0  0  0  0  0  0  0  0  0  0  0  0
   -2.4527    1.1295   -0.1717 N   0  0  0  0  0  0  0  0  0  0  0  0
    0.8713   -0.5576   -0.3138 C   0  0  0  0  0  0  0  0  0  0  0  0
    1.7047   -1.1057   -1.0795 O   0  0  0  0  0  0  0  0  0  0  0  0
    1.1002    0.8451    0.0585 C   0  0  2  0  0  0  0  0  0  0  0  0
    1.6573    1.8235   -0.9306 C   0  0  0  0  0  0  0  0  0  0  0  0
    2.4828    1.3599    0.2513 C   0  0  2  0  0  0  0  0  0  0  0  0
    3.6043    0.5027   -0.0828 N   0  0  0  0  0  0  0  0  0  0  0  0
    0.5252   -3.1352   -0.6312 H   0  0  0  0  0  0  0  0  0  0  0  0
   -1.2673   -2.8420   -0.9222 H   0  0  0  0  0  0  0  0  0  0  0  0
   -0.6474   -3.2512    0.6961 H   0  0  0  0  0  0  0  0  0  0  0  0
   -1.7227   -1.5653    1.6433 H   0  0  0  0  0  0  0  0  0  0  0  0
   -0.8406   -0.0290    1.7526 H   0  0  0  0  0  0  0  0  0  0  0  0
   -3.9260    2.1773   -1.2753 H   0  0  0  0  0  0  0  0  0  0  0  0
    0.3321    1.3034    0.7466 H   0  0  0  0  0  0  0  0  0  0  0  0
    1.3753    2.8900   -0.8726 H   0  0  0  0  0  0  0  0  0  0  0  0
    1.9314    1.4648   -1.9482 H   0  0  0  0  0  0  0  0  0  0  0  0
    2.6903    2.0650    1.0819 H   0  0  0  0  0  0  0  0  0  0  0  0
    4.4756    0.8556    0.3229 H   0  0  0  0  0  0  0  0  0  0  0  0
    3.6771    0.2982   -1.0958 H   0  0  0  0  0  0  0  0  0  0  0  0
  1  2  1  0
  2  3  1  0
  3  4  1  0
  4  5  1  0
  5  6  2  0
  6  7  1  0
  7  8  1  0
  2  9  1  0
  9 10  2  0
  9 11  1  0
 11 12  1  0
 12 13  1  0
 13 14  1  0
  8  4  2  0
 13 11  1  0
  1 15  1  0
  1 16  1  0
  1 17  1  0
  3 18  1  0
  3 19  1  0
  7 20  1  0
 11 21  1  1
 12 22  1  0
 12 23  1  0
 13 24  1  1
 14 25  1  0
 14 26  1  0
M  END
$$$$

     RDKit          3D

 26 27  0  0  0  0  0  0  0  0999 V2000
    0.3169   -2.7318    0.0227 C   0  0  0  0  0  0  0  0  0  0  0  0
    0.2690   -1.3416    0.4865 N   0  0  0  0  0  0  0  0  0  0  0  0
    1.4141   -0.7546    1.1585 C   0  0  0  0  0  0  0  0  0  0  0  0
    2.3224   -0.0975    0.2128 C   0  0  0  0  0  0  0  0  0  0  0  0
    3.3601   -0.6721   -0.4172 N   0  0  0  0  0  0  0  0  0  0  0  0
    3.9321    0.2331   -1.1799 N   0  0  0  0  0  0  0  0  0  0  0  0
    3.3018    1.3813   -1.0688 N   0  0  0  0  0  0  0  0  0  0  0  0
    2.3036    1.1942   -0.2113 N   0  0  0  0  0  0  0  0  0  0  0  0
   -0.9302   -0.6292    0.2485 C   0  0  0  0  0  0  0  0  0  0  0  0
   -1.8913   -1.2004   -0.3337 O   0  0  0  0  0  0  0  0  0  0  0  0
   -1.1425    0.7935    0.6505 C   0  0  2  0  0  0  0  0  0  0  0  0
   -2.4923    1.2997    0.9681 C   0  0  0  0  0  0  0  0  0  0  0  0
   -1.9028    1.5892   -0.3952 C   0  0  2  0  0  0  0  0  0  0  0  0
   -2.5188    0.8764   -1.5004 N   0  0  0  0  0  0  0  0  0  0  0  0
    0.5668   -2.6986   -1.0428 H   0  0  0  0  0  0  0  0  0  0  0  0
   -0.6801   -3.1541    0.1776 H   0  0  0  0  0  0  0  0  0  0  0  0
    1.0926   -3.3128    0.5507 H   0  0  0  0  0  0  0  0  0  0  0  0
    1.9581   -1.5956    1.6666 H   0  0  0  0  0  0  0  0  0  0  0  0
    1.0497   -0.0558    1.9219 H   0  0  0  0  0  0  0  0  0  0  0  0
    3.5368    2.2692   -1.5575 H   0  0  0  0  0  0  0  0  0  0  0  0
   -0.2826    1.2465    1.1458 H   0  0  0  0  0  0  0  0  0  0  0  0
   -3.3294    0.5785    1.0340 H   0  0  0  0  0  0  0  0  0  0  0  0
   -2.5428    2.1912    1.6309 H   0  0  0  0  0  0  0  0  0  0  0  0
   -1.4915    2.5938   -0.6134 H   0  0  0  0  0  0  0  0  0  0  0  0
   -2.8291    1.6111   -2.1875 H   0  0  0  0  0  0  0  0  0  0  0  0
   -3.3908    0.3865   -1.1698 H   0  0  0  0  0  0  0  0  0  0  0  0
  1  2  1  0
  2  3  1  0
  3  4  1  0
  4  5  1  0
  5  6  2  0
  6  7  1  0
  7  8  1  0
  2  9  1  0
  9 10  2  0
  9 11  1  0
 11 12  1  0
 12 13  1  0
 13 14  1  0
  8  4  2  0
 13 11  1  0
  1 15  1  0
  1 16  1  0
  1 17  1  0
  3 18  1  0
  3 19  1  0
  7 20  1  0
 11 21  1  1
 12 22  1  0
 12 23  1  0
 13 24  1  6
 14 25  1  0
 14 26  1  0
M  END
$$$$

     RDKit          3D

 26 27  0  0  0  0  0  0  0  0999 V2000
    0.9662   -2.5076   -0.2431 C   0  0  0  0  0  0  0  0  0  0  0  0
    0.5044   -1.1217   -0.4076 N   0  0  0  0  0  0  0  0  0  0  0  0
    1.3500   -0.1516   -1.0687 C   0  0  0  0  0  0  0  0  0  0  0  0
    2.1630    0.6086   -0.0849 C   0  0  0  0  0  0  0  0  0  0  0  0
    2.1955    0.5001    1.2550 N   0  0  0  0  0  0  0  0  0  0  0  0
    3.0693    1.3820    1.7053 N   0  0  0  0  0  0  0  0  0  0  0  0
    3.6008    2.0563    0.6888 N   0  0  0  0  0  0  0  0  0  0  0  0
    3.0349    1.5705   -0.4024 N   0  0  0  0  0  0  0  0  0  0  0  0
   -0.7633   -0.7329    0.0584 C   0  0  0  0  0  0  0  0  0  0  0  0
   -1.5065   -1.5864    0.5975 O   0  0  0  0  0  0  0  0  0  0  0  0
   -1.2536    0.6485   -0.0627 C   0  0  2  0  0  0  0  0  0  0  0  0
   -2.1971    1.1633    0.9649 C   0  0  0  0  0  0  0  0  0  0  0  0
   -2.7002    0.7585   -0.4114 C   0  0  2  0  0  0  0  0  0  0  0  0
   -3.5282   -0.4331   -0.4314 N   0  0  0  0  0  0  0  0  0  0  0  0
    1.9150   -2.6707   -0.7580 H   0  0  0  0  0  0  0  0  0  0  0  0
    0.2056   -3.1791   -0.7056 H   0  0  0  0  0  0  0  0  0  0  0  0
    1.0050   -2.6883    0.8519 H   0  0  0  0  0  0  0  0  0  0  0  0
    0.7293    0.5102   -1.6962 H   0  0  0  0  0  0  0  0  0  0  0  0
    2.0783   -0.7090   -1.7348 H   0  0  0  0  0  0  0  0  0  0  0  0
    4.3279    2.8208    0.7769 H   0  0  0  0  0  0  0  0  0  0  0  0
   -0.5714    1.3876   -0.5193 H   0  0  0  0  0  0  0  0  0  0  0  0
   -2.2685    2.2475    1.1607 H   0  0  0  0  0  0  0  0  0  0  0  0
   -2.4062    0.5014    1.8142 H   0  0  0  0  0  0  0  0  0  0  0  0
   -2.9736    1.5586   -1.1276 H   0  0  0  0  0  0  0  0  0  0  0  0
   -3.1691   -1.1802   -1.0370 H   0  0  0  0  0  0  0  0  0  0  0  0
   -3.8075   -0.7533    0.5138 H   0  0  0  0  0  0  0  0  0  0  0  0
  1  2  1  0
  2  3  1  0
  3  4  1  0
  4  5  1  0
  5  6  2  0
  6  7  1  0
  7  8  1  0
  2  9  1  0
  9 10  2  0
  9 11  1  0
 11 12  1  0
 12 13  1  0
 13 14  1  0
  8  4  2  0
 13 11  1  0
  1 15  1  0
  1 16  1  0
  1 17  1  0
  3 18  1  0
  3 19  1  0
  7 20  1  0
 11 21  1  6
 12 22  1  0
 12 23  1  0
 13 24  1  6
 14 25  1  0
 14 26  1  0
M  END
$$$$

     RDKit          3D

 26 27  0  0  0  0  0  0  0  0999 V2000
    1.1307   -1.4449    1.8685 C   0  0  0  0  0  0  0  0  0  0  0  0
    0.5395   -1.0112    0.6171 N   0  0  0  0  0  0  0  0  0  0  0  0
    1.2281   -1.3667   -0.6086 C   0  0  0  0  0  0  0  0  0  0  0  0
    2.2078   -0.3026   -0.9904 C   0  0  0  0  0  0  0  0  0  0  0  0
    3.4919   -0.2339   -0.6137 N   0  0  0  0  0  0  0  0  0  0  0  0
    4.0203    0.8481   -1.1557 N   0  0  0  0  0  0  0  0  0  0  0  0
    3.1315    1.4848   -1.8691 N   0  0  0  0  0  0  0  0  0  0  0  0
    1.9951    0.7789   -1.7757 N   0  0  0  0  0  0  0  0  0  0  0  0
   -0.6657   -0.2707    0.6249 C   0  0  0  0  0  0  0  0  0  0  0  0
   -1.1912   -0.0141    1.7333 O   0  0  0  0  0  0  0  0  0  0  0  0
   -1.2821    0.1830   -0.6184 C   0  0  2  0  0  0  0  0  0  0  0  0
   -1.8341    1.6446   -0.5761 C   0  0  0  0  0  0  0  0  0  0  0  0
   -2.7318    0.4477   -0.7375 C   0  0  2  0  0  0  0  0  0  0  0  0
   -3.6400    0.2239    0.3634 N   0  0  0  0  0  0  0  0  0  0  0  0
    1.7101   -2.3846    1.6851 H   0  0  0  0  0  0  0  0  0  0  0  0
    1.8342   -0.6744    2.2436 H   0  0  0  0  0  0  0  0  0  0  0  0
    0.3216   -1.6083    2.5905 H   0  0  0  0  0  0  0  0  0  0  0  0
    0.5362   -1.6115   -1.4415 H   0  0  0  0  0  0  0  0  0  0  0  0
    1.8319   -2.2803   -0.4026 H   0  0  0  0  0  0  0  0  0  0  0  0
    3.2401    2.3621   -2.4138 H   0  0  0  0  0  0  0  0  0  0  0  0
   -0.7701   -0.0701   -1.5708 H   0  0  0  0  0  0  0  0  0  0  0  0
   -1.6032    2.2710   -1.4593 H   0  0  0  0  0  0  0  0  0  0  0  0
   -1.7919    2.1449    0.4128 H   0  0  0  0  0  0  0  0  0  0  0  0
   -3.2037    0.3756   -1.7305 H   0  0  0  0  0  0  0  0  0  0  0  0
   -4.2084    1.0771    0.5945 H   0  0  0  0  0  0  0  0  0  0  0  0
   -4.2967   -0.5686    0.1812 H   0  0  0  0  0  0  0  0  0  0  0  0
  1  2  1  0
  2  3  1  0
  3  4  1  0
  4  5  1  0
  5  6  2  0
  6  7  1  0
  7  8  1  0
  2  9  1  0
  9 10  2  0
  9 11  1  0
 11 12  1  0
 12 13  1  0
 13 14  1  0
  8  4  2  0
 13 11  1  0
  1 15  1  0
  1 16  1  0
  1 17  1  0
  3 18  1  0
  3 19  1  0
  7 20  1  0
 11 21  1  6
 12 22  1  0
 12 23  1  0
 13 24  1  6
 14 25  1  0
 14 26  1  0
M  END
$$$$

     RDKit          3D

 26 27  0  0  0  0  0  0  0  0999 V2000
    0.5659   -0.0209   -2.0503 C   0  0  0  0  0  0  0  0  0  0  0  0
    0.4872   -0.6558   -0.7496 N   0  0  0  0  0  0  0  0  0  0  0  0
    1.5571   -1.5610   -0.3841 C   0  0  0  0  0  0  0  0  0  0  0  0
    2.6472   -0.8276    0.2999 C   0  0  0  0  0  0  0  0  0  0  0  0
    3.7873   -1.3356    0.7751 N   0  0  0  0  0  0  0  0  0  0  0  0
    4.4829   -0.3260    1.3135 N   0  0  0  0  0  0  0  0  0  0  0  0
    3.7787    0.8001    1.1730 N   0  0  0  0  0  0  0  0  0  0  0  0
    2.6526    0.4919    0.5511 N   0  0  0  0  0  0  0  0  0  0  0  0
   -0.6103   -0.3720    0.0989 C   0  0  0  0  0  0  0  0  0  0  0  0
   -0.6295   -0.9562    1.2288 O   0  0  0  0  0  0  0  0  0  0  0  0
   -1.6544    0.5569   -0.3407 C   0  0  2  0  0  0  0  0  0  0  0  0
   -2.0705    1.5477    0.7722 C   0  0  0  0  0  0  0  0  0  0  0  0
   -3.0171    0.5630    0.2125 C   0  0  2  0  0  0  0  0  0  0  0  0
   -3.4884   -0.5416    1.0436 N   0  0  0  0  0  0  0  0  0  0  0  0
   -0.3200   -0.2355   -2.6839 H   0  0  0  0  0  0  0  0  0  0  0  0
    1.4546   -0.3062   -2.6078 H   0  0  0  0  0  0  0  0  0  0  0  0
    0.5663    1.0787   -1.8903 H   0  0  0  0  0  0  0  0  0  0  0  0
    1.1825   -2.3585    0.3008 H   0  0  0  0  0  0  0  0  0  0  0  0
    1.9258   -2.0310   -1.3053 H   0  0  0  0  0  0  0  0  0  0  0  0
    4.0760    1.7519    1.5011 H   0  0  0  0  0  0  0  0  0  0  0  0
   -1.5219    0.9995   -1.3457 H   0  0  0  0  0  0  0  0  0  0  0  0
   -2.0591    2.6011    0.4713 H   0  0  0  0  0  0  0  0  0  0  0  0
   -1.7246    1.3621    1.7933 H   0  0  0  0  0  0  0  0  0  0  0  0
   -3.8206    0.9794   -0.4277 H   0  0  0  0  0  0  0  0  0  0  0  0
   -4.0788   -0.1046    1.7945 H   0  0  0  0  0  0  0  0  0  0  0  0
   -4.1691   -1.0999    0.4559 H   0  0  0  0  0  0  0  0  0  0  0  0
  1  2  1  0
  2  3  1  0
  3  4  1  0
  4  5  1  0
  5  6  2  0
  6  7  1  0
  7  8  1  0
  2  9  1  0
  9 10  2  0
  9 11  1  0
 11 12  1  0
 12 13  1  0
 13 14  1  0
  8  4  2  0
 13 11  1  0
  1 15  1  0
  1 16  1  0
  1 17  1  0
  3 18  1  0
  3 19  1  0
  7 20  1  0
 11 21  1  6
 12 22  1  0
 12 23  1  0
 13 24  1  6
 14 25  1  0
 14 26  1  0
M  END
$$$$
