
     RDKit          3D

 26 27  0  0  0  0  0  0  0  0999 V2000
    5.5228   -0.1927    0.0189 C   0  0  0  0  0  0  0  0  0  0  0  0
    4.1199    0.2006   -0.2144 N   0  0  0  0  0  0  0  0  0  0  0  0
    3.7018    1.1730   -1.0043 N   0  0  0  0  0  0  0  0  0  0  0  0
    2.3853    1.2516   -0.9786 N   0  0  0  0  0  0  0  0  0  0  0  0
    1.9645    0.2891   -0.1383 C   0  0  0  0  0  0  0  0  0  0  0  0
    0.5953   -0.0420    0.2362 C   0  0  0  0  0  0  0  0  0  0  0  0
    0.4127   -0.9842    1.0427 O   0  0  0  0  0  0  0  0  0  0  0  0
   -0.5585    0.7136   -0.3198 C   0  0  0  0  0  0  0  0  0  0  0  0
   -1.7623    0.1708    0.2215 N   0  0  0  0  0  0  0  0  0  0  0  0
   -2.9940    0.7957   -0.2189 C   0  0  0  0  0  0  0  0  0  0  0  0
   -3.6457   -0.5748   -0.1355 C   0  0  0  0  0  0  0  0  0  0  0  0
   -4.0995   -0.8645    1.1934 N   0  0  0  0  0  0  0  0  0  0  0  0
   -2.2349   -1.0599   -0.3891 C   0  0  0  0  0  0  0  0  0  0  0  0
    3.0473   -0.3387    0.3148 N   0  0  0  0  0  0  0  0  0  0  0  0
    5.5755   -0.5101    1.0649 H   0  0  0  0  0  0  0  0  0  0  0  0
    5.8308   -1.0080   -0.6408 H   0  0  0  0  0  0  0  0  0  0  0  0
    6.1499    0.7281   -0.0903 H   0  0  0  0  0  0  0  0  0  0  0  0
   -0.5137    0.6694   -1.4345 H   0  0  0  0  0  0  0  0  0  0  0  0
   -0.5024    1.8051   -0.0725 H   0  0  0  0  0  0  0  0  0  0  0  0
   -3.4463    1.5039    0.4799 H   0  0  0  0  0  0  0  0  0  0  0  0
   -2.9586    1.2176   -1.2425 H   0  0  0  0  0  0  0  0  0  0  0  0
   -4.3623   -0.7771   -0.9526 H   0  0  0  0  0  0  0  0  0  0  0  0
   -3.3131   -0.8159    1.8507 H   0  0  0  0  0  0  0  0  0  0  0  0
   -4.8713   -0.2321    1.4921 H   0  0  0  0  0  0  0  0  0  0  0  0
   -1.9880   -1.9868    0.1284 H   0  0  0  0  0  0  0  0  0  0  0  0
   -2.0551   -1.1317   -1.4804 H   0  0  0  0  0  0  0  0  0  0  0  0
  1  2  1  0
  2  3  1  0
  3  4  2  0
  4  5  1  0
  5  6  1  0
  6  7  2  0
  6  8  1  0
  8  9  1  0
  9 10  1  0
 10 11  1  0
 11 12  1  0
 11 13  1  0
  5 14  2  0
 14  2  1  0
 13  9  1  0
  1 15  1  0
  1 16  1  0
  1 17  1  0
  8 18  1  0
  8 19  1  0
 10 20  1  0
 10 21  1  0
 11 22  1  0
 12 23  1  0
 12 24  1  0
 13 25  1  0
 13 26  1  0
M  END
$$$$

     RDKit          3D

 26 27  0  0  0  0  0  0  0  0999 V2000
    5.1125    0.2456    0.4273 C   0  0  0  0  0  0  0  0  0  0  0  0
    3.9624   -0.2914   -0.2784 N   0  0  0  0  0  0  0  0  0  0  0  0
    3.9426   -1.1898   -1.2397 N   0  0  0  0  0  0  0  0  0  0  0  0
    2.6934   -1.4201   -1.6296 N   0  0  0  0  0  0  0  0  0  0  0  0
    1.8838   -0.6437   -0.8944 C   0  0  0  0  0  0  0  0  0  0  0  0
    0.4259   -0.5427   -0.9555 C   0  0  0  0  0  0  0  0  0  0  0  0
   -0.1876   -1.2498   -1.7816 O   0  0  0  0  0  0  0  0  0  0  0  0
   -0.3025    0.3797   -0.0545 C   0  0  0  0  0  0  0  0  0  0  0  0
   -1.7139    0.3210   -0.2942 N   0  0  0  0  0  0  0  0  0  0  0  0
   -2.3834   -0.9143    0.0679 C   0  0  0  0  0  0  0  0  0  0  0  0
   -3.5655   -0.0375    0.4799 C   0  0  0  0  0  0  0  0  0  0  0  0
   -4.3321    0.2966   -0.7212 N   0  0  0  0  0  0  0  0  0  0  0  0
   -2.5192    1.0291    0.7053 C   0  0  0  0  0  0  0  0  0  0  0  0
    2.7015    0.0388   -0.0715 N   0  0  0  0  0  0  0  0  0  0  0  0
    4.8766    1.1794    0.9493 H   0  0  0  0  0  0  0  0  0  0  0  0
    5.5104   -0.5184    1.1313 H   0  0  0  0  0  0  0  0  0  0  0  0
    5.9271    0.4371   -0.3087 H   0  0  0  0  0  0  0  0  0  0  0  0
    0.0102    1.4331   -0.2656 H   0  0  0  0  0  0  0  0  0  0  0  0
    0.0003    0.1660    0.9702 H   0  0  0  0  0  0  0  0  0  0  0  0
   -2.5729   -1.5551   -0.8062 H   0  0  0  0  0  0  0  0  0  0  0  0
   -1.9804   -1.4148    0.9546 H   0  0  0  0  0  0  0  0  0  0  0  0
   -4.1343   -0.3792    1.3392 H   0  0  0  0  0  0  0  0  0  0  0  0
   -4.9169    1.1417   -0.5673 H   0  0  0  0  0  0  0  0  0  0  0  0
   -3.6020    0.4594   -1.4785 H   0  0  0  0  0  0  0  0  0  0  0  0
   -2.0608    1.0010    1.6994 H   0  0  0  0  0  0  0  0  0  0  0  0
   -2.7754    2.0285    0.2989 H   0  0  0  0  0  0  0  0  0  0  0  0
  1  2  1  0
  2  3  1  0
  3  4  2  0
  4  5  1  0
  5  6  1  0
  6  7  2  0
  6  8  1  0
  8  9  1  0
  9 10  1  0
 10 11  1  0
 11 12  1  0
 11 13  1  0
  5 14  2  0
 14  2  1  0
 13  9  1  0
  1 15  1  0
  1 16  1  0
  1 17  1  0
  8 18  1  0
  8 19  1  0
 10 20  1  0
 10 21  1  0
 11 22  1  0
 12 23  1  0
 12 24  1  0
 13 25  1  0
 13 26  1  0
M  END
$$$$

     RDKit          3D

 26 27  0  0  0  0  0  0  0  0999 V2000
    5.5097    0.6508    0.2004 C   0  0  0  0  0  0  0  0  0  0  0  0
    4.1473    0.1809    0.0508 N   0  0  0  0  0  0  0  0  0  0  0  0
    3.8318   -1.1017   -0.0992 N   0  0  0  0  0  0  0  0  0  0  0  0
    2.4951   -1.1743   -0.2079 N   0  0  0  0  0  0  0  0  0  0  0  0
    1.9766    0.0570   -0.1262 C   0  0  0  0  0  0  0  0  0  0  0  0
    0.5979    0.5089   -0.1865 C   0  0  0  0  0  0  0  0  0  0  0  0
    0.2533    1.6996   -0.0956 O   0  0  0  0  0  0  0  0  0  0  0  0
   -0.4556   -0.5124   -0.3669 C   0  0  0  0  0  0  0  0  0  0  0  0
   -1.7804    0.0496   -0.4124 N   0  0  0  0  0  0  0  0  0  0  0  0
   -2.7548   -1.0214   -0.5919 C   0  0  0  0  0  0  0  0  0  0  0  0
   -3.6720   -0.2744    0.3327 C   0  0  0  0  0  0  0  0  0  0  0  0
   -4.5067    0.6382   -0.3897 N   0  0  0  0  0  0  0  0  0  0  0  0
   -2.3881    0.2815    0.8860 C   0  0  0  0  0  0  0  0  0  0  0  0
    3.0231    0.8823    0.0344 N   0  0  0  0  0  0  0  0  0  0  0  0
    6.0651   -0.1067    0.7894 H   0  0  0  0  0  0  0  0  0  0  0  0
    5.5334    1.6561    0.6508 H   0  0  0  0  0  0  0  0  0  0  0  0
    5.9367    0.7318   -0.8312 H   0  0  0  0  0  0  0  0  0  0  0  0
   -0.3665   -1.2333    0.4722 H   0  0  0  0  0  0  0  0  0  0  0  0
   -0.2141   -1.0787   -1.2901 H   0  0  0  0  0  0  0  0  0  0  0  0
   -3.1198   -1.1419   -1.6276 H   0  0  0  0  0  0  0  0  0  0  0  0
   -2.3921   -1.9614   -0.1069 H   0  0  0  0  0  0  0  0  0  0  0  0
   -4.2170   -0.9782    0.9900 H   0  0  0  0  0  0  0  0  0  0  0  0
   -4.9561    1.3672    0.1775 H   0  0  0  0  0  0  0  0  0  0  0  0
   -4.1251    0.9589   -1.2878 H   0  0  0  0  0  0  0  0  0  0  0  0
   -1.9977   -0.4137    1.6687 H   0  0  0  0  0  0  0  0  0  0  0  0
   -2.4240    1.3355    1.2124 H   0  0  0  0  0  0  0  0  0  0  0  0
  1  2  1  0
  2  3  1  0
  3  4  2  0
  4  5  1  0
  5  6  1  0
  6  7  2  0
  6  8  1  0
  8  9  1  0
  9 10  1  0
 10 11  1  0
 11 12  1  0
 11 13  1  0
  5 14  2  0
 14  2  1  0
 13  9  1  0
  1 15  1  0
  1 16  1  0
  1 17  1  0
  8 18  1  0
  8 19  1  0
 10 20  1  0
 10 21  1  0
 11 22  1  0
 12 23  1  0
 12 24  1  0
 13 25  1  0
 13 26  1  0
M  END
$$$$

     RDKit          3D

 26 27  0  0  0  0  0  0  0  0999 V2000
    5.1281   -0.1072    0.2226 C   0  0  0  0  0  0  0  0  0  0  0  0
    3.9581    0.0490   -0.6051 N   0  0  0  0  0  0  0  0  0  0  0  0
    3.9571    0.3552   -1.9088 N   0  0  0  0  0  0  0  0  0  0  0  0
    2.6764    0.4046   -2.2960 N   0  0  0  0  0  0  0  0  0  0  0  0
    1.8831    0.1333   -1.2541 C   0  0  0  0  0  0  0  0  0  0  0  0
    0.4164    0.0778   -1.1885 C   0  0  0  0  0  0  0  0  0  0  0  0
   -0.2360    0.3032   -2.2222 O   0  0  0  0  0  0  0  0  0  0  0  0
   -0.2373   -0.2469    0.1403 C   0  0  0  0  0  0  0  0  0  0  0  0
   -1.5904   -0.1094    0.0381 N   0  0  0  0  0  0  0  0  0  0  0  0
   -2.5046   -0.9184   -0.6441 C   0  0  0  0  0  0  0  0  0  0  0  0
   -3.6194   -0.0861    0.0224 C   0  0  0  0  0  0  0  0  0  0  0  0
   -3.8614    1.0673   -0.7646 N   0  0  0  0  0  0  0  0  0  0  0  0
   -2.5180    0.1513    1.0556 C   0  0  0  0  0  0  0  0  0  0  0  0
    2.7190   -0.0854   -0.2030 N   0  0  0  0  0  0  0  0  0  0  0  0
    6.0491   -0.0899   -0.3804 H   0  0  0  0  0  0  0  0  0  0  0  0
    5.0337   -1.0497    0.7919 H   0  0  0  0  0  0  0  0  0  0  0  0
    5.1606    0.7842    0.9093 H   0  0  0  0  0  0  0  0  0  0  0  0
    0.2775    0.3739    0.9088 H   0  0  0  0  0  0  0  0  0  0  0  0
    0.0131   -1.3303    0.3916 H   0  0  0  0  0  0  0  0  0  0  0  0
   -2.6307   -1.9840   -0.3351 H   0  0  0  0  0  0  0  0  0  0  0  0
   -2.5249   -0.8165   -1.7596 H   0  0  0  0  0  0  0  0  0  0  0  0
   -4.4751   -0.6616    0.3945 H   0  0  0  0  0  0  0  0  0  0  0  0
   -3.1284    1.7836   -0.7395 H   0  0  0  0  0  0  0  0  0  0  0  0
   -4.8203    1.4022   -0.8543 H   0  0  0  0  0  0  0  0  0  0  0  0
   -2.5322    1.2015    1.4380 H   0  0  0  0  0  0  0  0  0  0  0  0
   -2.5937   -0.6016    1.8957 H   0  0  0  0  0  0  0  0  0  0  0  0
  1  2  1  0
  2  3  1  0
  3  4  2  0
  4  5  1  0
  5  6  1  0
  6  7  2  0
  6  8  1  0
  8  9  1  0
  9 10  1  0
 10 11  1  0
 11 12  1  0
 11 13  1  0
  5 14  2  0
 14  2  1  0
 13  9  1  0
  1 15  1  0
  1 16  1  0
  1 17  1  0
  8 18  1  0
  8 19  1  0
 10 20  1  0
 10 21  1  0
 11 22  1  0
 12 23  1  0
 12 24  1  0
 13 25  1  0
 13 26  1  0
M  END
$$$$

     RDKit          3D

 26 27  0  0  0  0  0  0  0  0999 V2000
    4.8656    0.7540    0.1195 C   0  0  0  0  0  0  0  0  0  0  0  0
    3.7627   -0.1510    0.3962 N   0  0  0  0  0  0  0  0  0  0  0  0
    3.7655   -1.2599    1.1061 N   0  0  0  0  0  0  0  0  0  0  0  0
    2.5533   -1.7956    1.1167 N   0  0  0  0  0  0  0  0  0  0  0  0
    1.7488   -1.0088    0.3949 C   0  0  0  0  0  0  0  0  0  0  0  0
    0.3399   -1.2624    0.1691 C   0  0  0  0  0  0  0  0  0  0  0  0
   -0.2451   -2.2759    0.6491 O   0  0  0  0  0  0  0  0  0  0  0  0
   -0.4949   -0.3366   -0.6454 C   0  0  0  0  0  0  0  0  0  0  0  0
   -1.8481   -0.8024   -0.7596 N   0  0  0  0  0  0  0  0  0  0  0  0
   -2.6189   -0.7786    0.4537 C   0  0  0  0  0  0  0  0  0  0  0  0
   -3.1969    0.5583    0.0490 C   0  0  0  0  0  0  0  0  0  0  0  0
   -2.4558    1.7045    0.4660 N   0  0  0  0  0  0  0  0  0  0  0  0
   -2.7868    0.1120   -1.3382 C   0  0  0  0  0  0  0  0  0  0  0  0
    2.5168   -0.0021   -0.0383 N   0  0  0  0  0  0  0  0  0  0  0  0
    5.3363    0.4331   -0.8553 H   0  0  0  0  0  0  0  0  0  0  0  0
    5.6172    0.6967    0.9310 H   0  0  0  0  0  0  0  0  0  0  0  0
    4.5134    1.8001    0.0647 H   0  0  0  0  0  0  0  0  0  0  0  0
   -0.4093    0.6981   -0.2588 H   0  0  0  0  0  0  0  0  0  0  0  0
   -0.0376   -0.3168   -1.6619 H   0  0  0  0  0  0  0  0  0  0  0  0
   -2.0590   -0.7415    1.3980 H   0  0  0  0  0  0  0  0  0  0  0  0
   -3.4244   -1.5660    0.4341 H   0  0  0  0  0  0  0  0  0  0  0  0
   -4.3023    0.6059    0.2184 H   0  0  0  0  0  0  0  0  0  0  0  0
   -2.5636    2.5345   -0.1753 H   0  0  0  0  0  0  0  0  0  0  0  0
   -2.5247    1.9474    1.4686 H   0  0  0  0  0  0  0  0  0  0  0  0
   -2.4004    0.9015   -1.9914 H   0  0  0  0  0  0  0  0  0  0  0  0
   -3.6519   -0.4485   -1.7920 H   0  0  0  0  0  0  0  0  0  0  0  0
  1  2  1  0
  2  3  1  0
  3  4  2  0
  4  5  1  0
  5  6  1  0
  6  7  2  0
  6  8  1  0
  8  9  1  0
  9 10  1  0
 10 11  1  0
 11 12  1  0
 11 13  1  0
  5 14  2  0
 14  2  1  0
 13  9  1  0
  1 15  1  0
  1 16  1  0
  1 17  1  0
  8 18  1  0
  8 19  1  0
 10 20  1  0
 10 21  1  0
 11 22  1  0
 12 23  1  0
 12 24  1  0
 13 25  1  0
 13 26  1  0
M  END
$$$$

     RDKit          3D

 26 27  0  0  0  0  0  0  0  0999 V2000
    4.0835    1.6153   -0.1761 C   0  0  0  0  0  0  0  0  0  0  0  0
    3.3300    0.3808   -0.2417 N   0  0  0  0  0  0  0  0  0  0  0  0
    3.8857   -0.8112   -0.0455 N   0  0  0  0  0  0  0  0  0  0  0  0
    2.9990   -1.7707   -0.1482 N   0  0  0  0  0  0  0  0  0  0  0  0
    1.7908   -1.1754   -0.4287 C   0  0  0  0  0  0  0  0  0  0  0  0
    0.5920   -1.9493   -0.5894 C   0  0  0  0  0  0  0  0  0  0  0  0
    0.6344   -3.1952   -0.4704 O   0  0  0  0  0  0  0  0  0  0  0  0
   -0.7258   -1.3532   -0.8980 C   0  0  0  0  0  0  0  0  0  0  0  0
   -1.5012   -1.0580    0.3097 N   0  0  0  0  0  0  0  0  0  0  0  0
   -2.8993   -0.8014    0.0333 C   0  0  0  0  0  0  0  0  0  0  0  0
   -2.5043    0.5806   -0.4271 C   0  0  0  0  0  0  0  0  0  0  0  0
   -3.4706    1.6040   -0.0876 N   0  0  0  0  0  0  0  0  0  0  0  0
   -1.4340    0.3898    0.6180 C   0  0  0  0  0  0  0  0  0  0  0  0
    2.0700    0.1304   -0.4721 N   0  0  0  0  0  0  0  0  0  0  0  0
    4.5139    1.7928    0.8085 H   0  0  0  0  0  0  0  0  0  0  0  0
    4.9444    1.4755   -0.8725 H   0  0  0  0  0  0  0  0  0  0  0  0
    3.4779    2.4751   -0.4644 H   0  0  0  0  0  0  0  0  0  0  0  0
   -1.3619   -2.0234   -1.5076 H   0  0  0  0  0  0  0  0  0  0  0  0
   -0.4912   -0.3890   -1.4361 H   0  0  0  0  0  0  0  0  0  0  0  0
   -3.3403   -1.4808   -0.7063 H   0  0  0  0  0  0  0  0  0  0  0  0
   -3.4797   -0.7059    0.9821 H   0  0  0  0  0  0  0  0  0  0  0  0
   -2.1738    0.6762   -1.4771 H   0  0  0  0  0  0  0  0  0  0  0  0
   -3.5024    1.6932    0.9356 H   0  0  0  0  0  0  0  0  0  0  0  0
   -3.1288    2.5035   -0.4772 H   0  0  0  0  0  0  0  0  0  0  0  0
   -0.4674    0.8652    0.3999 H   0  0  0  0  0  0  0  0  0  0  0  0
   -1.8409    0.5314    1.6241 H   0  0  0  0  0  0  0  0  0  0  0  0
  1  2  1  0
  2  3  1  0
  3  4  2  0
  4  5  1  0
  5  6  1  0
  6  7  2  0
  6  8  1  0
  8  9  1  0
  9 10  1  0
 10 11  1  0
 11 12  1  0
 11 13  1  0
  5 14  2  0
 14  2  1  0
 13  9  1  0
  1 15  1  0
  1 16  1  0
  1 17  1  0
  8 18  1  0
  8 19  1  0
 10 20  1  0
 10 21  1  0
 11 22  1  0
 12 23  1  0
 12 24  1  0
 13 25  1  0
 13 26  1  0
M  END
$$$$

     RDKit          3D

 26 27  0  0  0  0  0  0  0  0999 V2000
   -5.5474   -0.2805   -0.5578 C   0  0  0  0  0  0  0  0  0  0  0  0
   -4.1115   -0.4442   -0.6375 N   0  0  0  0  0  0  0  0  0  0  0  0
   -3.5155   -1.5469   -1.0394 N   0  0  0  0  0  0  0  0  0  0  0  0
   -2.1935   -1.3699   -0.9959 N   0  0  0  0  0  0  0  0  0  0  0  0
   -1.9528   -0.1285   -0.5569 C   0  0  0  0  0  0  0  0  0  0  0  0
   -0.6274    0.4336   -0.3756 C   0  0  0  0  0  0  0  0  0  0  0  0
   -0.4751    1.6316    0.0494 O   0  0  0  0  0  0  0  0  0  0  0  0
    0.5996   -0.3325   -0.6664 C   0  0  0  0  0  0  0  0  0  0  0  0
    1.7465    0.4682   -0.3952 N   0  0  0  0  0  0  0  0  0  0  0  0
    1.9838    0.7804    0.9999 C   0  0  0  0  0  0  0  0  0  0  0  0
    3.4569    0.6950    0.7232 C   0  0  0  0  0  0  0  0  0  0  0  0
    4.2314    0.0143    1.7355 N   0  0  0  0  0  0  0  0  0  0  0  0
    3.0267   -0.1650   -0.4438 C   0  0  0  0  0  0  0  0  0  0  0  0
   -3.1504    0.4256   -0.3416 N   0  0  0  0  0  0  0  0  0  0  0  0
   -5.8862    0.6551   -1.0729 H   0  0  0  0  0  0  0  0  0  0  0  0
   -5.9157   -0.2307    0.4926 H   0  0  0  0  0  0  0  0  0  0  0  0
   -6.0642   -1.1291   -1.0461 H   0  0  0  0  0  0  0  0  0  0  0  0
    0.6728   -1.2650   -0.0708 H   0  0  0  0  0  0  0  0  0  0  0  0
    0.6011   -0.5619   -1.7709 H   0  0  0  0  0  0  0  0  0  0  0  0
    1.6209    1.7958    1.2699 H   0  0  0  0  0  0  0  0  0  0  0  0
    1.6667   -0.0213    1.7080 H   0  0  0  0  0  0  0  0  0  0  0  0
    3.8710    1.6688    0.4172 H   0  0  0  0  0  0  0  0  0  0  0  0
    5.2323    0.1681    1.5081 H   0  0  0  0  0  0  0  0  0  0  0  0
    4.0445    0.5311    2.6434 H   0  0  0  0  0  0  0  0  0  0  0  0
    3.0481   -1.2574   -0.2265 H   0  0  0  0  0  0  0  0  0  0  0  0
    3.6376    0.0455   -1.3497 H   0  0  0  0  0  0  0  0  0  0  0  0
  1  2  1  0
  2  3  1  0
  3  4  2  0
  4  5  1  0
  5  6  1  0
  6  7  2  0
  6  8  1  0
  8  9  1  0
  9 10  1  0
 10 11  1  0
 11 12  1  0
 11 13  1  0
  5 14  2  0
 14  2  1  0
 13  9  1  0
  1 15  1  0
  1 16  1  0
  1 17  1  0
  8 18  1  0
  8 19  1  0
 10 20  1  0
 10 21  1  0
 11 22  1  0
 12 23  1  0
 12 24  1  0
 13 25  1  0
 13 26  1  0
M  END
$$$$

     RDKit          3D

 26 27  0  0  0  0  0  0  0  0999 V2000
    5.4886    0.8091    0.1893 C   0  0  0  0  0  0  0  0  0  0  0  0
    4.0928    0.6078   -0.2313 N   0  0  0  0  0  0  0  0  0  0  0  0
    3.5504    0.9671   -1.3768 N   0  0  0  0  0  0  0  0  0  0  0  0
    2.2675    0.6167   -1.3923 N   0  0  0  0  0  0  0  0  0  0  0  0
    1.9758    0.0153   -0.2246 C   0  0  0  0  0  0  0  0  0  0  0  0
    0.6779   -0.5405    0.2116 C   0  0  0  0  0  0  0  0  0  0  0  0
    0.6130   -1.0576    1.3318 O   0  0  0  0  0  0  0  0  0  0  0  0
   -0.5117   -0.4796   -0.6687 C   0  0  0  0  0  0  0  0  0  0  0  0
   -1.6156   -1.0962    0.0247 N   0  0  0  0  0  0  0  0  0  0  0  0
   -2.8616   -1.1130   -0.7170 C   0  0  0  0  0  0  0  0  0  0  0  0
   -3.2115    0.2010   -0.0097 C   0  0  0  0  0  0  0  0  0  0  0  0
   -4.5379    0.1734    0.5632 N   0  0  0  0  0  0  0  0  0  0  0  0
   -2.1503   -0.1667    1.0125 C   0  0  0  0  0  0  0  0  0  0  0  0
    3.1281    0.0286    0.4658 N   0  0  0  0  0  0  0  0  0  0  0  0
    5.4928    0.7955    1.2838 H   0  0  0  0  0  0  0  0  0  0  0  0
    6.0889   -0.0460   -0.1979 H   0  0  0  0  0  0  0  0  0  0  0  0
    5.8376    1.7292   -0.2778 H   0  0  0  0  0  0  0  0  0  0  0  0
   -0.7257    0.6099   -0.8764 H   0  0  0  0  0  0  0  0  0  0  0  0
   -0.3203   -0.9244   -1.6662 H   0  0  0  0  0  0  0  0  0  0  0  0
   -3.4873   -1.9691   -0.3599 H   0  0  0  0  0  0  0  0  0  0  0  0
   -2.7463   -1.0239   -1.8057 H   0  0  0  0  0  0  0  0  0  0  0  0
   -2.9728    1.0975   -0.6082 H   0  0  0  0  0  0  0  0  0  0  0  0
   -5.1437   -0.3588   -0.1232 H   0  0  0  0  0  0  0  0  0  0  0  0
   -4.9210    1.1497    0.6190 H   0  0  0  0  0  0  0  0  0  0  0  0
   -2.5225   -0.7179    1.8881 H   0  0  0  0  0  0  0  0  0  0  0  0
   -1.4853    0.6929    1.2334 H   0  0  0  0  0  0  0  0  0  0  0  0
  1  2  1  0
  2  3  1  0
  3  4  2  0
  4  5  1  0
  5  6  1  0
  6  7  2  0
  6  8  1  0
  8  9  1  0
  9 10  1  0
 10 11  1  0
 11 12  1  0
 11 13  1  0
  5 14  2  0
 14  2  1  0
 13  9  1  0
  1 15  1  0
  1 16  1  0
  1 17  1  0
  8 18  1  0
  8 19  1  0
 10 20  1  0
 10 21  1  0
 11 22  1  0
 12 23  1  0
 12 24  1  0
 13 25  1  0
 13 26  1  0
M  END
$$$$
