
     RDKit          3D

 31 32  0  0  0  0  0  0  0  0999 V2000
    2.1385    2.2189    1.8472 O   0  0  0  0  0  0  0  0  0  0  0  0
    2.3382    1.2928    1.0202 C   0  0  0  0  0  0  0  0  0  0  0  0
    2.8205   -0.0028    1.2993 N   0  0  0  0  0  0  0  0  0  0  0  0
    3.2729   -0.6751    0.1018 C   0  0  0  0  0  0  0  0  0  0  0  0
    2.9507    0.2873   -1.0291 C   0  0  0  0  0  0  0  0  0  0  0  0
    2.1032    1.3726   -0.4448 C   0  0  1  0  0  0  0  0  0  0  0  0
    0.7129    1.2933   -0.7803 N   0  0  0  0  0  0  0  0  0  0  0  0
    0.2130    0.0093   -0.3563 C   0  0  0  0  0  0  0  0  0  0  0  0
   -1.2765   -0.1548   -0.6707 C   0  0  2  0  0  0  0  0  0  0  0  0
   -2.0881    0.9090    0.0312 C   0  0  0  0  0  0  0  0  0  0  0  0
   -3.4167    0.6944   -0.2454 O   0  0  0  0  0  0  0  0  0  0  0  0
   -3.8025   -0.4639    0.4251 C   0  0  0  0  0  0  0  0  0  0  0  0
   -3.0283   -1.6683    0.0212 C   0  0  0  0  0  0  0  0  0  0  0  0
   -1.6539   -1.4676   -0.2518 N   0  0  0  0  0  0  0  0  0  0  0  0
    2.8538   -0.4342    2.2372 H   0  0  0  0  0  0  0  0  0  0  0  0
    2.8066   -1.6568   -0.0500 H   0  0  0  0  0  0  0  0  0  0  0  0
    4.3755   -0.8276    0.2151 H   0  0  0  0  0  0  0  0  0  0  0  0
    3.9396    0.7022   -1.3802 H   0  0  0  0  0  0  0  0  0  0  0  0
    2.4843   -0.2202   -1.8959 H   0  0  0  0  0  0  0  0  0  0  0  0
    2.4865    2.3693   -0.8102 H   0  0  0  0  0  0  0  0  0  0  0  0
    0.2265    2.0670   -0.2773 H   0  0  0  0  0  0  0  0  0  0  0  0
    0.7272   -0.7602   -0.9860 H   0  0  0  0  0  0  0  0  0  0  0  0
    0.3324   -0.1698    0.7181 H   0  0  0  0  0  0  0  0  0  0  0  0
   -1.4651   -0.0634   -1.7588 H   0  0  0  0  0  0  0  0  0  0  0  0
   -1.8073    1.9069   -0.3309 H   0  0  0  0  0  0  0  0  0  0  0  0
   -1.9097    0.7952    1.1288 H   0  0  0  0  0  0  0  0  0  0  0  0
   -3.7818   -0.2784    1.5165 H   0  0  0  0  0  0  0  0  0  0  0  0
   -4.8767   -0.6254    0.1606 H   0  0  0  0  0  0  0  0  0  0  0  0
   -3.5069   -2.1087   -0.8851 H   0  0  0  0  0  0  0  0  0  0  0  0
   -3.1718   -2.4389    0.8313 H   0  0  0  0  0  0  0  0  0  0  0  0
   -0.9974   -1.9022    0.4269 H   0  0  0  0  0  0  0  0  0  0  0  0
  1  2  2  0
  2  3  1  0
  3  4  1  0
  4  5  1  0
  5  6  1  0
  6  7  1  0
  7  8  1  0
  8  9  1  0
  9 10  1  0
 10 11  1  0
 11 12  1  0
 12 13  1  0
 13 14  1  0
  6  2  1  0
 14  9  1  0
  3 15  1  0
  4 16  1  0
  4 17  1  0
  5 18  1  0
  5 19  1  0
  6 20  1  6
  7 21  1  0
  8 22  1  0
  8 23  1  0
  9 24  1  6
 10 25  1  0
 10 26  1  0
 12 27  1  0
 12 28  1  0
 13 29  1  0
 13 30  1  0
 14 31  1  0
M  END
$$$$

     RDKit          3D

 31 32  0  0  0  0  0  0  0  0999 V2000
   -3.2769   -1.3696    1.8559 O   0  0  0  0  0  0  0  0  0  0  0  0
   -3.2656   -0.6583    0.8253 C   0  0  0  0  0  0  0  0  0  0  0  0
   -4.3437    0.1581    0.3972 N   0  0  0  0  0  0  0  0  0  0  0  0
   -3.9148    0.9961   -0.7084 C   0  0  0  0  0  0  0  0  0  0  0  0
   -2.4108    0.8367   -0.7315 C   0  0  0  0  0  0  0  0  0  0  0  0
   -2.1488   -0.5405   -0.1164 C   0  0  1  0  0  0  0  0  0  0  0  0
   -0.8406   -0.5172    0.5136 N   0  0  0  0  0  0  0  0  0  0  0  0
    0.1262   -0.5929   -0.5682 C   0  0  0  0  0  0  0  0  0  0  0  0
    1.5328   -0.5696   -0.0499 C   0  0  2  0  0  0  0  0  0  0  0  0
    1.7711    0.6991    0.7024 C   0  0  0  0  0  0  0  0  0  0  0  0
    3.0464    0.8020    1.2265 O   0  0  0  0  0  0  0  0  0  0  0  0
    4.0545    0.4900    0.3553 C   0  0  0  0  0  0  0  0  0  0  0  0
    3.7967   -0.6961   -0.5290 C   0  0  0  0  0  0  0  0  0  0  0  0
    2.4755   -0.6436   -1.1325 N   0  0  0  0  0  0  0  0  0  0  0  0
   -5.3343    0.2008    0.7809 H   0  0  0  0  0  0  0  0  0  0  0  0
   -4.2050    2.0492   -0.5040 H   0  0  0  0  0  0  0  0  0  0  0  0
   -4.3945    0.7117   -1.6683 H   0  0  0  0  0  0  0  0  0  0  0  0
   -1.9750    1.6238   -0.0800 H   0  0  0  0  0  0  0  0  0  0  0  0
   -2.0121    0.8303   -1.7558 H   0  0  0  0  0  0  0  0  0  0  0  0
   -2.1889   -1.3165   -0.9285 H   0  0  0  0  0  0  0  0  0  0  0  0
   -0.7598   -1.4148    1.0514 H   0  0  0  0  0  0  0  0  0  0  0  0
   -0.0590   -1.5722   -1.0918 H   0  0  0  0  0  0  0  0  0  0  0  0
   -0.0580    0.1951   -1.3234 H   0  0  0  0  0  0  0  0  0  0  0  0
    1.7178   -1.4154    0.6393 H   0  0  0  0  0  0  0  0  0  0  0  0
    1.0612    0.7194    1.5545 H   0  0  0  0  0  0  0  0  0  0  0  0
    1.5057    1.5917    0.0713 H   0  0  0  0  0  0  0  0  0  0  0  0
    4.9536    0.2302    0.9816 H   0  0  0  0  0  0  0  0  0  0  0  0
    4.3947    1.3325   -0.2814 H   0  0  0  0  0  0  0  0  0  0  0  0
    4.5498   -0.7054   -1.3350 H   0  0  0  0  0  0  0  0  0  0  0  0
    3.8455   -1.6236    0.0593 H   0  0  0  0  0  0  0  0  0  0  0  0
    2.3564    0.1690   -1.7543 H   0  0  0  0  0  0  0  0  0  0  0  0
  1  2  2  0
  2  3  1  0
  3  4  1  0
  4  5  1  0
  5  6  1  0
  6  7  1  0
  7  8  1  0
  8  9  1  0
  9 10  1  0
 10 11  1  0
 11 12  1  0
 12 13  1  0
 13 14  1  0
  6  2  1  0
 14  9  1  0
  3 15  1  0
  4 16  1  0
  4 17  1  0
  5 18  1  0
  5 19  1  0
  6 20  1  6
  7 21  1  0
  8 22  1  0
  8 23  1  0
  9 24  1  1
 10 25  1  0
 10 26  1  0
 12 27  1  0
 12 28  1  0
 13 29  1  0
 13 30  1  0
 14 31  1  0
M  END
$$$$

     RDKit          3D

 31 32  0  0  0  0  0  0  0  0999 V2000
    2.6517    2.5359    0.9714 O   0  0  0  0  0  0  0  0  0  0  0  0
    2.7177    1.3580    0.4911 C   0  0  0  0  0  0  0  0  0  0  0  0
    3.6267    0.3801    1.0395 N   0  0  0  0  0  0  0  0  0  0  0  0
    3.8922   -0.5618   -0.0068 C   0  0  0  0  0  0  0  0  0  0  0  0
    2.6821   -0.5584   -0.8725 C   0  0  0  0  0  0  0  0  0  0  0  0
    1.9832    0.7292   -0.6271 C   0  0  1  0  0  0  0  0  0  0  0  0
    0.6140    0.6644   -0.3958 N   0  0  0  0  0  0  0  0  0  0  0  0
    0.0733   -0.0327    0.6813 C   0  0  0  0  0  0  0  0  0  0  0  0
   -1.4178   -0.2637    0.6019 C   0  0  2  0  0  0  0  0  0  0  0  0
   -1.7640   -1.0787   -0.6388 C   0  0  0  0  0  0  0  0  0  0  0  0
   -2.9843   -0.6487   -1.1509 O   0  0  0  0  0  0  0  0  0  0  0  0
   -3.9297   -0.5138   -0.1143 C   0  0  0  0  0  0  0  0  0  0  0  0
   -3.5839    0.6066    0.8211 C   0  0  0  0  0  0  0  0  0  0  0  0
   -2.1747    0.9700    0.6014 N   0  0  0  0  0  0  0  0  0  0  0  0
    4.0119    0.3705    2.0041 H   0  0  0  0  0  0  0  0  0  0  0  0
    4.7717   -0.2443   -0.6133 H   0  0  0  0  0  0  0  0  0  0  0  0
    4.0656   -1.5940    0.3902 H   0  0  0  0  0  0  0  0  0  0  0  0
    2.9341   -0.6836   -1.9613 H   0  0  0  0  0  0  0  0  0  0  0  0
    1.9719   -1.3795   -0.5652 H   0  0  0  0  0  0  0  0  0  0  0  0
    2.2012    1.4468   -1.5111 H   0  0  0  0  0  0  0  0  0  0  0  0
   -0.0073    1.2974   -0.9321 H   0  0  0  0  0  0  0  0  0  0  0  0
    0.2051    0.5972    1.6182 H   0  0  0  0  0  0  0  0  0  0  0  0
    0.6288   -0.9652    0.8871 H   0  0  0  0  0  0  0  0  0  0  0  0
   -1.7093   -0.8488    1.4828 H   0  0  0  0  0  0  0  0  0  0  0  0
   -1.8476   -2.1691   -0.4222 H   0  0  0  0  0  0  0  0  0  0  0  0
   -1.0040   -0.9436   -1.4304 H   0  0  0  0  0  0  0  0  0  0  0  0
   -3.9320   -1.5003    0.4243 H   0  0  0  0  0  0  0  0  0  0  0  0
   -4.9220   -0.4086   -0.5781 H   0  0  0  0  0  0  0  0  0  0  0  0
   -4.2454    1.5071    0.7027 H   0  0  0  0  0  0  0  0  0  0  0  0
   -3.6520    0.2859    1.8948 H   0  0  0  0  0  0  0  0  0  0  0  0
   -1.8572    1.6457    1.3026 H   0  0  0  0  0  0  0  0  0  0  0  0
  1  2  2  0
  2  3  1  0
  3  4  1  0
  4  5  1  0
  5  6  1  0
  6  7  1  0
  7  8  1  0
  8  9  1  0
  9 10  1  0
 10 11  1  0
 11 12  1  0
 12 13  1  0
 13 14  1  0
  6  2  1  0
 14  9  1  0
  3 15  1  0
  4 16  1  0
  4 17  1  0
  5 18  1  0
  5 19  1  0
  6 20  1  6
  7 21  1  0
  8 22  1  0
  8 23  1  0
  9 24  1  1
 10 25  1  0
 10 26  1  0
 12 27  1  0
 12 28  1  0
 13 29  1  0
 13 30  1  0
 14 31  1  0
M  END
$$$$

     RDKit          3D

 31 32  0  0  0  0  0  0  0  0999 V2000
    2.7155    0.8379    2.3439 O   0  0  0  0  0  0  0  0  0  0  0  0
    3.0161    0.3321    1.2522 C   0  0  0  0  0  0  0  0  0  0  0  0
    4.1628   -0.3927    0.8591 N   0  0  0  0  0  0  0  0  0  0  0  0
    4.0713   -0.5893   -0.5870 C   0  0  0  0  0  0  0  0  0  0  0  0
    2.5447   -0.7851   -0.7161 C   0  0  0  0  0  0  0  0  0  0  0  0
    2.0933    0.4301    0.0545 C   0  0  1  0  0  0  0  0  0  0  0  0
    0.7354    0.4355    0.4464 N   0  0  0  0  0  0  0  0  0  0  0  0
   -0.1338    0.4604   -0.7073 C   0  0  0  0  0  0  0  0  0  0  0  0
   -1.5412    0.7018   -0.1449 C   0  0  2  0  0  0  0  0  0  0  0  0
   -1.8822   -0.3970    0.7811 C   0  0  0  0  0  0  0  0  0  0  0  0
   -3.2404   -0.4470    1.1047 O   0  0  0  0  0  0  0  0  0  0  0  0
   -3.9778   -0.4990   -0.0742 C   0  0  0  0  0  0  0  0  0  0  0  0
   -3.8181    0.8442   -0.7560 C   0  0  0  0  0  0  0  0  0  0  0  0
   -2.4323    0.8630   -1.2489 N   0  0  0  0  0  0  0  0  0  0  0  0
    4.9359   -0.7368    1.4507 H   0  0  0  0  0  0  0  0  0  0  0  0
    4.2706    0.3913   -1.0711 H   0  0  0  0  0  0  0  0  0  0  0  0
    4.6430   -1.4263   -0.9628 H   0  0  0  0  0  0  0  0  0  0  0  0
    2.2610   -1.6952   -0.1919 H   0  0  0  0  0  0  0  0  0  0  0  0
    2.2519   -0.7834   -1.7832 H   0  0  0  0  0  0  0  0  0  0  0  0
    2.3657    1.3770   -0.4999 H   0  0  0  0  0  0  0  0  0  0  0  0
    0.5601   -0.4364    1.0093 H   0  0  0  0  0  0  0  0  0  0  0  0
   -0.1484   -0.5631   -1.1890 H   0  0  0  0  0  0  0  0  0  0  0  0
    0.1495    1.1837   -1.4712 H   0  0  0  0  0  0  0  0  0  0  0  0
   -1.4638    1.7016    0.3842 H   0  0  0  0  0  0  0  0  0  0  0  0
   -1.3778   -0.1815    1.7701 H   0  0  0  0  0  0  0  0  0  0  0  0
   -1.4775   -1.3735    0.4639 H   0  0  0  0  0  0  0  0  0  0  0  0
   -3.4799   -1.2622   -0.7205 H   0  0  0  0  0  0  0  0  0  0  0  0
   -5.0439   -0.7511    0.1084 H   0  0  0  0  0  0  0  0  0  0  0  0
   -3.9011    1.6496    0.0217 H   0  0  0  0  0  0  0  0  0  0  0  0
   -4.5237    0.9829   -1.5811 H   0  0  0  0  0  0  0  0  0  0  0  0
   -2.3349    0.1284   -1.9815 H   0  0  0  0  0  0  0  0  0  0  0  0
  1  2  2  0
  2  3  1  0
  3  4  1  0
  4  5  1  0
  5  6  1  0
  6  7  1  0
  7  8  1  0
  8  9  1  0
  9 10  1  0
 10 11  1  0
 11 12  1  0
 12 13  1  0
 13 14  1  0
  6  2  1  0
 14  9  1  0
  3 15  1  0
  4 16  1  0
  4 17  1  0
  5 18  1  0
  5 19  1  0
  6 20  1  6
  7 21  1  0
  8 22  1  0
  8 23  1  0
  9 24  1  1
 10 25  1  0
 10 26  1  0
 12 27  1  0
 12 28  1  0
 13 29  1  0
 13 30  1  0
 14 31  1  0
M  END
$$$$

     RDKit          3D

 31 32  0  0  0  0  0  0  0  0999 V2000
   -2.2836   -2.2200    0.2992 O   0  0  0  0  0  0  0  0  0  0  0  0
   -2.5722   -1.0771   -0.0918 C   0  0  0  0  0  0  0  0  0  0  0  0
   -3.8314   -0.7132   -0.6660 N   0  0  0  0  0  0  0  0  0  0  0  0
   -4.0171    0.6921   -0.4984 C   0  0  0  0  0  0  0  0  0  0  0  0
   -2.6833    1.2775   -0.0572 C   0  0  0  0  0  0  0  0  0  0  0  0
   -1.7256    0.1328   -0.0561 C   0  0  1  0  0  0  0  0  0  0  0  0
   -0.8430    0.1945    1.0608 N   0  0  0  0  0  0  0  0  0  0  0  0
    0.2226   -0.7943    1.0444 C   0  0  0  0  0  0  0  0  0  0  0  0
    1.2378   -0.4283   -0.0523 C   0  0  2  0  0  0  0  0  0  0  0  0
    2.3216   -1.4832   -0.0249 C   0  0  0  0  0  0  0  0  0  0  0  0
    3.3879   -1.1442   -0.8565 O   0  0  0  0  0  0  0  0  0  0  0  0
    3.7484    0.1900   -0.7918 C   0  0  0  0  0  0  0  0  0  0  0  0
    3.1859    0.8361    0.4573 C   0  0  0  0  0  0  0  0  0  0  0  0
    1.7619    0.8588    0.3829 N   0  0  0  0  0  0  0  0  0  0  0  0
   -4.4978   -1.3514   -1.1242 H   0  0  0  0  0  0  0  0  0  0  0  0
   -4.8145    0.9450    0.2255 H   0  0  0  0  0  0  0  0  0  0  0  0
   -4.3241    1.1800   -1.4558 H   0  0  0  0  0  0  0  0  0  0  0  0
   -2.7799    1.7661    0.9485 H   0  0  0  0  0  0  0  0  0  0  0  0
   -2.3206    2.0522   -0.7988 H   0  0  0  0  0  0  0  0  0  0  0  0
   -1.1456    0.1468   -1.0318 H   0  0  0  0  0  0  0  0  0  0  0  0
   -0.4619    1.1212    1.2896 H   0  0  0  0  0  0  0  0  0  0  0  0
    0.7589   -0.7542    1.9947 H   0  0  0  0  0  0  0  0  0  0  0  0
   -0.1549   -1.7826    0.8189 H   0  0  0  0  0  0  0  0  0  0  0  0
    0.7899   -0.3999   -1.0575 H   0  0  0  0  0  0  0  0  0  0  0  0
    2.6476   -1.6091    1.0276 H   0  0  0  0  0  0  0  0  0  0  0  0
    1.9198   -2.4359   -0.3805 H   0  0  0  0  0  0  0  0  0  0  0  0
    3.2301    0.7085   -1.6499 H   0  0  0  0  0  0  0  0  0  0  0  0
    4.8380    0.3402   -0.8466 H   0  0  0  0  0  0  0  0  0  0  0  0
    3.5938    1.8520    0.5650 H   0  0  0  0  0  0  0  0  0  0  0  0
    3.5018    0.2268    1.3448 H   0  0  0  0  0  0  0  0  0  0  0  0
    1.3096    1.6728   -0.0191 H   0  0  0  0  0  0  0  0  0  0  0  0
  1  2  2  0
  2  3  1  0
  3  4  1  0
  4  5  1  0
  5  6  1  0
  6  7  1  0
  7  8  1  0
  8  9  1  0
  9 10  1  0
 10 11  1  0
 11 12  1  0
 12 13  1  0
 13 14  1  0
  6  2  1  0
 14  9  1  0
  3 15  1  0
  4 16  1  0
  4 17  1  0
  5 18  1  0
  5 19  1  0
  6 20  1  6
  7 21  1  0
  8 22  1  0
  8 23  1  0
  9 24  1  6
 10 25  1  0
 10 26  1  0
 12 27  1  0
 12 28  1  0
 13 29  1  0
 13 30  1  0
 14 31  1  0
M  END
$$$$

     RDKit          3D

 31 32  0  0  0  0  0  0  0  0999 V2000
    1.9017   -1.4252    2.0295 O   0  0  0  0  0  0  0  0  0  0  0  0
    2.5499   -0.7976    1.1738 C   0  0  0  0  0  0  0  0  0  0  0  0
    3.9850   -0.8040    1.0452 N   0  0  0  0  0  0  0  0  0  0  0  0
    4.3719    0.0534   -0.0646 C   0  0  0  0  0  0  0  0  0  0  0  0
    3.1338   -0.1358   -0.9647 C   0  0  0  0  0  0  0  0  0  0  0  0
    2.0564    0.0820    0.1079 C   0  0  1  0  0  0  0  0  0  0  0  0
    0.7384   -0.1537   -0.3689 N   0  0  0  0  0  0  0  0  0  0  0  0
   -0.2227    0.0856    0.6551 C   0  0  0  0  0  0  0  0  0  0  0  0
   -1.6169   -0.0937    0.0833 C   0  0  2  0  0  0  0  0  0  0  0  0
   -1.8211    0.8945   -1.0343 C   0  0  0  0  0  0  0  0  0  0  0  0
   -3.0887    1.4847   -0.8217 O   0  0  0  0  0  0  0  0  0  0  0  0
   -3.9983    0.4266   -0.8212 C   0  0  0  0  0  0  0  0  0  0  0  0
   -3.9064   -0.3434    0.4803 C   0  0  0  0  0  0  0  0  0  0  0  0
   -2.6148   -0.0381    1.1132 N   0  0  0  0  0  0  0  0  0  0  0  0
    4.6417   -1.3319    1.6414 H   0  0  0  0  0  0  0  0  0  0  0  0
    4.3761    1.1271    0.2381 H   0  0  0  0  0  0  0  0  0  0  0  0
    5.2898   -0.2561   -0.5516 H   0  0  0  0  0  0  0  0  0  0  0  0
    3.1024    0.6222   -1.7561 H   0  0  0  0  0  0  0  0  0  0  0  0
    3.1451   -1.1754   -1.2670 H   0  0  0  0  0  0  0  0  0  0  0  0
    2.1088    1.1661    0.4026 H   0  0  0  0  0  0  0  0  0  0  0  0
    0.6170   -1.0779   -0.8462 H   0  0  0  0  0  0  0  0  0  0  0  0
   -0.0888   -0.4629    1.5961 H   0  0  0  0  0  0  0  0  0  0  0  0
   -0.1514    1.1784    0.9135 H   0  0  0  0  0  0  0  0  0  0  0  0
   -1.6275   -1.1326   -0.3273 H   0  0  0  0  0  0  0  0  0  0  0  0
   -1.7236    0.4375   -2.0204 H   0  0  0  0  0  0  0  0  0  0  0  0
   -1.0764    1.7267   -0.9830 H   0  0  0  0  0  0  0  0  0  0  0  0
   -5.0460    0.7968   -0.8987 H   0  0  0  0  0  0  0  0  0  0  0  0
   -3.8463   -0.2314   -1.7150 H   0  0  0  0  0  0  0  0  0  0  0  0
   -4.7140   -0.0823    1.1899 H   0  0  0  0  0  0  0  0  0  0  0  0
   -3.8765   -1.4336    0.2873 H   0  0  0  0  0  0  0  0  0  0  0  0
   -2.5984    0.8940    1.5308 H   0  0  0  0  0  0  0  0  0  0  0  0
  1  2  2  0
  2  3  1  0
  3  4  1  0
  4  5  1  0
  5  6  1  0
  6  7  1  0
  7  8  1  0
  8  9  1  0
  9 10  1  0
 10 11  1  0
 11 12  1  0
 12 13  1  0
 13 14  1  0
  6  2  1  0
 14  9  1  0
  3 15  1  0
  4 16  1  0
  4 17  1  0
  5 18  1  0
  5 19  1  0
  6 20  1  1
  7 21  1  0
  8 22  1  0
  8 23  1  0
  9 24  1  6
 10 25  1  0
 10 26  1  0
 12 27  1  0
 12 28  1  0
 13 29  1  0
 13 30  1  0
 14 31  1  0
M  END
$$$$

     RDKit          3D

 31 32  0  0  0  0  0  0  0  0999 V2000
    2.0339    1.2980    1.7167 O   0  0  0  0  0  0  0  0  0  0  0  0
    2.6387    0.5631    0.9300 C   0  0  0  0  0  0  0  0  0  0  0  0
    4.0207    0.1950    1.0962 N   0  0  0  0  0  0  0  0  0  0  0  0
    4.4109   -0.6147   -0.0408 C   0  0  0  0  0  0  0  0  0  0  0  0
    3.0777   -1.3027   -0.3651 C   0  0  0  0  0  0  0  0  0  0  0  0
    2.1483   -0.1065   -0.3219 C   0  0  1  0  0  0  0  0  0  0  0  0
    0.7671   -0.4231   -0.2988 N   0  0  0  0  0  0  0  0  0  0  0  0
   -0.1036    0.7214   -0.2734 C   0  0  0  0  0  0  0  0  0  0  0  0
   -1.5075    0.3041   -0.0017 C   0  0  2  0  0  0  0  0  0  0  0  0
   -2.1204   -0.6458   -0.9784 C   0  0  0  0  0  0  0  0  0  0  0  0
   -3.2250   -1.2309   -0.3052 O   0  0  0  0  0  0  0  0  0  0  0  0
   -4.1492   -0.2782    0.0227 C   0  0  0  0  0  0  0  0  0  0  0  0
   -3.5966    0.9094    0.7776 C   0  0  0  0  0  0  0  0  0  0  0  0
   -2.4172    1.4523    0.0894 N   0  0  0  0  0  0  0  0  0  0  0  0
    4.6568    0.4307    1.8646 H   0  0  0  0  0  0  0  0  0  0  0  0
    5.2000   -1.3301    0.1954 H   0  0  0  0  0  0  0  0  0  0  0  0
    4.6338    0.0600   -0.8915 H   0  0  0  0  0  0  0  0  0  0  0  0
    2.7939   -1.9736    0.4546 H   0  0  0  0  0  0  0  0  0  0  0  0
    3.1100   -1.8056   -1.3531 H   0  0  0  0  0  0  0  0  0  0  0  0
    2.4437    0.5288   -1.1856 H   0  0  0  0  0  0  0  0  0  0  0  0
    0.4930   -1.1631    0.3337 H   0  0  0  0  0  0  0  0  0  0  0  0
   -0.1372    1.2065   -1.3107 H   0  0  0  0  0  0  0  0  0  0  0  0
    0.2347    1.5460    0.3834 H   0  0  0  0  0  0  0  0  0  0  0  0
   -1.5802   -0.1860    1.0196 H   0  0  0  0  0  0  0  0  0  0  0  0
   -2.5944   -0.0769   -1.8163 H   0  0  0  0  0  0  0  0  0  0  0  0
   -1.4352   -1.4150   -1.3303 H   0  0  0  0  0  0  0  0  0  0  0  0
   -4.9013   -0.7710    0.7015 H   0  0  0  0  0  0  0  0  0  0  0  0
   -4.6187    0.0958   -0.9052 H   0  0  0  0  0  0  0  0  0  0  0  0
   -3.1772    0.5656    1.7687 H   0  0  0  0  0  0  0  0  0  0  0  0
   -4.3794    1.6555    0.8899 H   0  0  0  0  0  0  0  0  0  0  0  0
   -2.7202    1.7909   -0.8658 H   0  0  0  0  0  0  0  0  0  0  0  0
  1  2  2  0
  2  3  1  0
  3  4  1  0
  4  5  1  0
  5  6  1  0
  6  7  1  0
  7  8  1  0
  8  9  1  0
  9 10  1  0
 10 11  1  0
 11 12  1  0
 12 13  1  0
 13 14  1  0
  6  2  1  0
 14  9  1  0
  3 15  1  0
  4 16  1  0
  4 17  1  0
  5 18  1  0
  5 19  1  0
  6 20  1  6
  7 21  1  0
  8 22  1  0
  8 23  1  0
  9 24  1  1
 10 25  1  0
 10 26  1  0
 12 27  1  0
 12 28  1  0
 13 29  1  0
 13 30  1  0
 14 31  1  0
M  END
$$$$

     RDKit          3D

 31 32  0  0  0  0  0  0  0  0999 V2000
   -3.2548   -1.4370    2.4529 O   0  0  0  0  0  0  0  0  0  0  0  0
   -3.1537   -0.7532    1.3808 C   0  0  0  0  0  0  0  0  0  0  0  0
   -3.9704    0.3596    1.0729 N   0  0  0  0  0  0  0  0  0  0  0  0
   -3.1718    1.1156    0.1021 C   0  0  0  0  0  0  0  0  0  0  0  0
   -2.7399   -0.0578   -0.7885 C   0  0  0  0  0  0  0  0  0  0  0  0
   -2.1747   -0.9819    0.2728 C   0  0  1  0  0  0  0  0  0  0  0  0
   -0.8288   -0.6025    0.5917 N   0  0  0  0  0  0  0  0  0  0  0  0
   -0.1267    0.0200   -0.5095 C   0  0  0  0  0  0  0  0  0  0  0  0
    1.3317    0.1222   -0.0911 C   0  0  2  0  0  0  0  0  0  0  0  0
    2.1813    0.7682   -1.1518 C   0  0  0  0  0  0  0  0  0  0  0  0
    3.4589    0.9784   -0.6688 O   0  0  0  0  0  0  0  0  0  0  0  0
    4.0957   -0.1359   -0.1722 C   0  0  0  0  0  0  0  0  0  0  0  0
    3.2161   -1.0096    0.6787 C   0  0  0  0  0  0  0  0  0  0  0  0
    1.8968   -1.2134    0.1083 N   0  0  0  0  0  0  0  0  0  0  0  0
   -4.8991    0.6462    1.4052 H   0  0  0  0  0  0  0  0  0  0  0  0
   -2.3243    1.5457    0.6588 H   0  0  0  0  0  0  0  0  0  0  0  0
   -3.7612    1.8664   -0.4418 H   0  0  0  0  0  0  0  0  0  0  0  0
   -2.0248    0.2178   -1.5529 H   0  0  0  0  0  0  0  0  0  0  0  0
   -3.6847   -0.5032   -1.1689 H   0  0  0  0  0  0  0  0  0  0  0  0
   -2.2571   -2.0514   -0.0394 H   0  0  0  0  0  0  0  0  0  0  0  0
   -0.7748   -0.0336    1.4638 H   0  0  0  0  0  0  0  0  0  0  0  0
   -0.4375    1.0656   -0.7120 H   0  0  0  0  0  0  0  0  0  0  0  0
   -0.2079   -0.6528   -1.3729 H   0  0  0  0  0  0  0  0  0  0  0  0
    1.4296    0.7002    0.8477 H   0  0  0  0  0  0  0  0  0  0  0  0
    2.1749    0.1948   -2.1130 H   0  0  0  0  0  0  0  0  0  0  0  0
    1.7365    1.7599   -1.3688 H   0  0  0  0  0  0  0  0  0  0  0  0
    4.5654   -0.7778   -0.9474 H   0  0  0  0  0  0  0  0  0  0  0  0
    4.9162    0.2124    0.4854 H   0  0  0  0  0  0  0  0  0  0  0  0
    3.7188   -2.0027    0.7862 H   0  0  0  0  0  0  0  0  0  0  0  0
    3.0730   -0.5366    1.6714 H   0  0  0  0  0  0  0  0  0  0  0  0
    1.9970   -1.5860   -0.8797 H   0  0  0  0  0  0  0  0  0  0  0  0
  1  2  2  0
  2  3  1  0
  3  4  1  0
  4  5  1  0
  5  6  1  0
  6  7  1  0
  7  8  1  0
  8  9  1  0
  9 10  1  0
 10 11  1  0
 11 12  1  0
 12 13  1  0
 13 14  1  0
  6  2  1  0
 14  9  1  0
  3 15  1  0
  4 16  1  0
  4 17  1  0
  5 18  1  0
  5 19  1  0
  6 20  1  6
  7 21  1  0
  8 22  1  0
  8 23  1  0
  9 24  1  1
 10 25  1  0
 10 26  1  0
 12 27  1  0
 12 28  1  0
 13 29  1  0
 13 30  1  0
 14 31  1  0
M  END
$$$$
