
     RDKit          3D

 31 33  0  0  0  0  0  0  0  0999 V2000
   -1.9748    1.0938    1.0271 O   0  0  0  0  0  0  0  0  0  0  0  0
   -1.9828    0.6851   -0.2979 C   0  0  1  0  0  0  0  0  0  0  0  0
   -0.6044    0.2200   -0.7603 C   0  0  1  0  0  0  0  0  0  0  0  0
    0.2712    0.3110    0.3444 N   0  0  0  0  0  0  0  0  0  0  0  0
    1.2728   -0.6635    0.5717 C   0  0  0  0  0  0  0  0  0  0  0  0
    2.3140    0.3553    0.3130 C   0  0  0  0  0  0  0  0  0  0  0  0
    3.4615    0.2220   -0.5602 C   0  0  0  0  0  0  0  0  0  0  0  0
    3.5994    0.4649    0.9698 C   0  0  0  0  0  0  0  0  0  0  0  0
    1.2582    1.3865    0.2386 C   0  0  0  0  0  0  0  0  0  0  0  0
   -0.8893   -1.1254   -1.3041 C   0  0  0  0  0  0  0  0  0  0  0  0
   -1.8901   -1.6529   -0.2829 C   0  0  1  0  0  0  0  0  0  0  0  0
   -1.3568   -1.6028    0.9924 O   0  0  0  0  0  0  0  0  0  0  0  0
   -2.8958   -0.5115   -0.3947 C   0  0  1  0  0  0  0  0  0  0  0  0
   -3.8641   -0.5539    0.5828 O   0  0  0  0  0  0  0  0  0  0  0  0
   -2.5693    1.8802    1.1882 H   0  0  0  0  0  0  0  0  0  0  0  0
   -2.3977    1.4699   -0.9471 H   0  0  0  0  0  0  0  0  0  0  0  0
   -0.2831    0.9352   -1.5426 H   0  0  0  0  0  0  0  0  0  0  0  0
    1.3657   -1.5265   -0.0842 H   0  0  0  0  0  0  0  0  0  0  0  0
    1.2935   -0.9987    1.6376 H   0  0  0  0  0  0  0  0  0  0  0  0
    3.7548   -0.7927   -0.9210 H   0  0  0  0  0  0  0  0  0  0  0  0
    3.8156    1.0634   -1.2016 H   0  0  0  0  0  0  0  0  0  0  0  0
    4.0557   -0.4017    1.5121 H   0  0  0  0  0  0  0  0  0  0  0  0
    4.0634    1.4232    1.2762 H   0  0  0  0  0  0  0  0  0  0  0  0
    1.1633    2.1047    1.0695 H   0  0  0  0  0  0  0  0  0  0  0  0
    1.2144    1.9353   -0.7345 H   0  0  0  0  0  0  0  0  0  0  0  0
   -0.0550   -1.7878   -1.4933 H   0  0  0  0  0  0  0  0  0  0  0  0
   -1.4691   -1.0009   -2.2474 H   0  0  0  0  0  0  0  0  0  0  0  0
   -2.3129   -2.6241   -0.5629 H   0  0  0  0  0  0  0  0  0  0  0  0
   -1.6345   -2.3399    1.5785 H   0  0  0  0  0  0  0  0  0  0  0  0
   -3.2892   -0.5493   -1.4215 H   0  0  0  0  0  0  0  0  0  0  0  0
   -3.4347   -0.6793    1.4544 H   0  0  0  0  0  0  0  0  0  0  0  0
  1  2  1  0
  2  3  1  0
  3  4  1  0
  4  5  1  0
  5  6  1  0
  6  7  1  0
  7  8  1  0
  6  9  1  0
  3 10  1  0
 10 11  1  0
 11 12  1  0
 11 13  1  0
 13 14  1  0
 13  2  1  0
  9  4  1  0
  8  6  1  0
  1 15  1  0
  2 16  1  6
  3 17  1  6
  5 18  1  0
  5 19  1  0
  7 20  1  0
  7 21  1  0
  8 22  1  0
  8 23  1  0
  9 24  1  0
  9 25  1  0
 10 26  1  0
 10 27  1  0
 11 28  1  6
 12 29  1  0
 13 30  1  6
 14 31  1  0
M  END
$$$$

     RDKit          3D

 31 33  0  0  0  0  0  0  0  0999 V2000
    1.5065   -1.9807   -0.1562 O   0  0  0  0  0  0  0  0  0  0  0  0
    1.8326   -0.7095   -0.5153 C   0  0  1  0  0  0  0  0  0  0  0  0
    0.7276    0.1779   -0.9095 C   0  0  1  0  0  0  0  0  0  0  0  0
   -0.4978    0.0170   -0.2008 N   0  0  0  0  0  0  0  0  0  0  0  0
   -1.1599   -1.2795   -0.3280 C   0  0  0  0  0  0  0  0  0  0  0  0
   -2.4084   -0.5274   -0.2599 C   0  0  0  0  0  0  0  0  0  0  0  0
   -3.7110   -0.7827    0.1229 C   0  0  0  0  0  0  0  0  0  0  0  0
   -2.8786   -0.2034    1.1970 C   0  0  0  0  0  0  0  0  0  0  0  0
   -1.6840    0.5531   -0.8992 C   0  0  0  0  0  0  0  0  0  0  0  0
    1.2393    1.5780   -0.6031 C   0  0  0  0  0  0  0  0  0  0  0  0
    2.4946    1.4274    0.1895 C   0  0  1  0  0  0  0  0  0  0  0  0
    2.5302    2.2487    1.3259 O   0  0  0  0  0  0  0  0  0  0  0  0
    2.4802    0.0071    0.6710 C   0  0  1  0  0  0  0  0  0  0  0  0
    1.6843   -0.1421    1.7823 O   0  0  0  0  0  0  0  0  0  0  0  0
    1.9638   -2.6605   -0.7478 H   0  0  0  0  0  0  0  0  0  0  0  0
    2.6103   -0.7091   -1.3253 H   0  0  0  0  0  0  0  0  0  0  0  0
    0.5153    0.1501   -1.9917 H   0  0  0  0  0  0  0  0  0  0  0  0
   -1.0075   -1.7074   -1.3631 H   0  0  0  0  0  0  0  0  0  0  0  0
   -0.9451   -1.9982    0.4837 H   0  0  0  0  0  0  0  0  0  0  0  0
   -4.5441   -0.1222   -0.2444 H   0  0  0  0  0  0  0  0  0  0  0  0
   -4.0768   -1.8136    0.3037 H   0  0  0  0  0  0  0  0  0  0  0  0
   -2.4194   -0.8025    1.9965 H   0  0  0  0  0  0  0  0  0  0  0  0
   -2.9482    0.8760    1.4506 H   0  0  0  0  0  0  0  0  0  0  0  0
   -1.5132    0.3575   -2.0000 H   0  0  0  0  0  0  0  0  0  0  0  0
   -1.8951    1.5965   -0.6903 H   0  0  0  0  0  0  0  0  0  0  0  0
    1.4341    2.1543   -1.5184 H   0  0  0  0  0  0  0  0  0  0  0  0
    0.5259    2.1639    0.0140 H   0  0  0  0  0  0  0  0  0  0  0  0
    3.4155    1.5931   -0.4057 H   0  0  0  0  0  0  0  0  0  0  0  0
    1.7443    2.0316    1.8753 H   0  0  0  0  0  0  0  0  0  0  0  0
    3.5226   -0.3892    0.8132 H   0  0  0  0  0  0  0  0  0  0  0  0
    1.4620   -1.1042    1.9331 H   0  0  0  0  0  0  0  0  0  0  0  0
  1  2  1  0
  2  3  1  0
  3  4  1  0
  4  5  1  0
  5  6  1  0
  6  7  1  0
  7  8  1  0
  6  9  1  0
  3 10  1  0
 10 11  1  0
 11 12  1  0
 11 13  1  0
 13 14  1  0
 13  2  1  0
  9  4  1  0
  8  6  1  0
  1 15  1  0
  2 16  1  6
  3 17  1  6
  5 18  1  0
  5 19  1  0
  7 20  1  0
  7 21  1  0
  8 22  1  0
  8 23  1  0
  9 24  1  0
  9 25  1  0
 10 26  1  0
 10 27  1  0
 11 28  1  6
 12 29  1  0
 13 30  1  1
 14 31  1  0
M  END
$$$$

     RDKit          3D

 31 33  0  0  0  0  0  0  0  0999 V2000
   -1.3957    1.8418    0.3473 O   0  0  0  0  0  0  0  0  0  0  0  0
   -1.4629    0.8642   -0.6046 C   0  0  1  0  0  0  0  0  0  0  0  0
   -0.6272   -0.3533   -0.3151 C   0  0  1  0  0  0  0  0  0  0  0  0
    0.6735   -0.0594    0.2027 N   0  0  0  0  0  0  0  0  0  0  0  0
    1.5427    0.7031   -0.7081 C   0  0  0  0  0  0  0  0  0  0  0  0
    2.6420   -0.1686   -0.2361 C   0  0  0  0  0  0  0  0  0  0  0  0
    3.6893    0.1830    0.6972 C   0  0  0  0  0  0  0  0  0  0  0  0
    3.9568   -0.3055   -0.7652 C   0  0  0  0  0  0  0  0  0  0  0  0
    1.5950   -1.1832   -0.0388 C   0  0  0  0  0  0  0  0  0  0  0  0
   -1.4085   -1.0398    0.7998 C   0  0  0  0  0  0  0  0  0  0  0  0
   -2.7877   -0.4551    0.7984 C   0  0  1  0  0  0  0  0  0  0  0  0
   -2.8606    0.5468    1.7886 O   0  0  0  0  0  0  0  0  0  0  0  0
   -2.8732    0.2636   -0.5395 C   0  0  1  0  0  0  0  0  0  0  0  0
   -3.8270    1.2542   -0.4902 O   0  0  0  0  0  0  0  0  0  0  0  0
   -0.6790    1.7772    0.9941 H   0  0  0  0  0  0  0  0  0  0  0  0
   -1.3225    1.2131   -1.6394 H   0  0  0  0  0  0  0  0  0  0  0  0
   -0.5569   -0.9713   -1.2174 H   0  0  0  0  0  0  0  0  0  0  0  0
    1.3075    0.5496   -1.7809 H   0  0  0  0  0  0  0  0  0  0  0  0
    1.6547    1.7513   -0.3906 H   0  0  0  0  0  0  0  0  0  0  0  0
    4.0008    1.1966    0.9457 H   0  0  0  0  0  0  0  0  0  0  0  0
    3.9436   -0.5657    1.4995 H   0  0  0  0  0  0  0  0  0  0  0  0
    4.4881   -1.2788   -0.8205 H   0  0  0  0  0  0  0  0  0  0  0  0
    4.4327    0.4792   -1.3889 H   0  0  0  0  0  0  0  0  0  0  0  0
    1.7693   -1.8256    0.8261 H   0  0  0  0  0  0  0  0  0  0  0  0
    1.3448   -1.6970   -1.0026 H   0  0  0  0  0  0  0  0  0  0  0  0
   -0.9193   -0.8575    1.7964 H   0  0  0  0  0  0  0  0  0  0  0  0
   -1.4149   -2.1530    0.6092 H   0  0  0  0  0  0  0  0  0  0  0  0
   -3.5515   -1.2291    0.9239 H   0  0  0  0  0  0  0  0  0  0  0  0
   -3.6124    1.1574    1.5745 H   0  0  0  0  0  0  0  0  0  0  0  0
   -3.0317   -0.4612   -1.3542 H   0  0  0  0  0  0  0  0  0  0  0  0
   -4.7096    0.8227   -0.4955 H   0  0  0  0  0  0  0  0  0  0  0  0
  1  2  1  0
  2  3  1  0
  3  4  1  0
  4  5  1  0
  5  6  1  0
  6  7  1  0
  7  8  1  0
  6  9  1  0
  3 10  1  0
 10 11  1  0
 11 12  1  0
 11 13  1  0
 13 14  1  0
 13  2  1  0
  9  4  1  0
  8  6  1  0
  1 15  1  0
  2 16  1  6
  3 17  1  6
  5 18  1  0
  5 19  1  0
  7 20  1  0
  7 21  1  0
  8 22  1  0
  8 23  1  0
  9 24  1  0
  9 25  1  0
 10 26  1  0
 10 27  1  0
 11 28  1  1
 12 29  1  0
 13 30  1  6
 14 31  1  0
M  END
$$$$

     RDKit          3D

 31 33  0  0  0  0  0  0  0  0999 V2000
   -1.1579   -1.6238   -1.4365 O   0  0  0  0  0  0  0  0  0  0  0  0
   -1.4503   -1.2751   -0.1282 C   0  0  1  0  0  0  0  0  0  0  0  0
   -0.5834   -0.1583    0.3780 C   0  0  1  0  0  0  0  0  0  0  0  0
    0.6003   -0.0778   -0.4259 N   0  0  0  0  0  0  0  0  0  0  0  0
    1.4528    1.0740   -0.1206 C   0  0  0  0  0  0  0  0  0  0  0  0
    2.5693    0.1367    0.0707 C   0  0  0  0  0  0  0  0  0  0  0  0
    3.8542    0.1401   -0.5825 C   0  0  0  0  0  0  0  0  0  0  0  0
    3.7213    0.3268    0.9244 C   0  0  0  0  0  0  0  0  0  0  0  0
    1.6126   -0.9956    0.1208 C   0  0  0  0  0  0  0  0  0  0  0  0
   -1.4369    1.0746    0.3257 C   0  0  0  0  0  0  0  0  0  0  0  0
   -2.7726    0.5290    0.8177 C   0  0  1  0  0  0  0  0  0  0  0  0
   -3.8196    1.3903    0.5787 O   0  0  0  0  0  0  0  0  0  0  0  0
   -2.8666   -0.7613    0.0377 C   0  0  1  0  0  0  0  0  0  0  0  0
   -3.3925   -0.5811   -1.2303 O   0  0  0  0  0  0  0  0  0  0  0  0
   -0.3434   -1.2134   -1.7953 H   0  0  0  0  0  0  0  0  0  0  0  0
   -1.2504   -2.1615    0.5138 H   0  0  0  0  0  0  0  0  0  0  0  0
   -0.2700   -0.3265    1.4244 H   0  0  0  0  0  0  0  0  0  0  0  0
    1.5052    1.8204   -0.9318 H   0  0  0  0  0  0  0  0  0  0  0  0
    1.1187    1.5056    0.8578 H   0  0  0  0  0  0  0  0  0  0  0  0
    4.1624    0.9903   -1.2096 H   0  0  0  0  0  0  0  0  0  0  0  0
    4.3156   -0.8518   -0.8388 H   0  0  0  0  0  0  0  0  0  0  0  0
    4.0228    1.3608    1.2388 H   0  0  0  0  0  0  0  0  0  0  0  0
    4.1216   -0.4637    1.5979 H   0  0  0  0  0  0  0  0  0  0  0  0
    1.3608   -1.4201    1.1071 H   0  0  0  0  0  0  0  0  0  0  0  0
    1.8374   -1.7529   -0.6731 H   0  0  0  0  0  0  0  0  0  0  0  0
   -1.0595    1.8590    1.0203 H   0  0  0  0  0  0  0  0  0  0  0  0
   -1.5302    1.5010   -0.6901 H   0  0  0  0  0  0  0  0  0  0  0  0
   -2.6338    0.2666    1.8797 H   0  0  0  0  0  0  0  0  0  0  0  0
   -4.6418    0.8792    0.3298 H   0  0  0  0  0  0  0  0  0  0  0  0
   -3.4431   -1.5433    0.5545 H   0  0  0  0  0  0  0  0  0  0  0  0
   -3.6033    0.3518   -1.4504 H   0  0  0  0  0  0  0  0  0  0  0  0
  1  2  1  0
  2  3  1  0
  3  4  1  0
  4  5  1  0
  5  6  1  0
  6  7  1  0
  7  8  1  0
  6  9  1  0
  3 10  1  0
 10 11  1  0
 11 12  1  0
 11 13  1  0
 13 14  1  0
 13  2  1  0
  9  4  1  0
  8  6  1  0
  1 15  1  0
  2 16  1  1
  3 17  1  1
  5 18  1  0
  5 19  1  0
  7 20  1  0
  7 21  1  0
  8 22  1  0
  8 23  1  0
  9 24  1  0
  9 25  1  0
 10 26  1  0
 10 27  1  0
 11 28  1  1
 12 29  1  0
 13 30  1  1
 14 31  1  0
M  END
$$$$

     RDKit          3D

 31 33  0  0  0  0  0  0  0  0999 V2000
   -0.8005    1.6338   -0.0953 O   0  0  0  0  0  0  0  0  0  0  0  0
   -1.1627    0.4763   -0.7330 C   0  0  1  0  0  0  0  0  0  0  0  0
   -0.5377   -0.7663   -0.2290 C   0  0  1  0  0  0  0  0  0  0  0  0
    0.8204   -0.7653    0.0795 N   0  0  0  0  0  0  0  0  0  0  0  0
    1.3923    0.0403    1.0868 C   0  0  0  0  0  0  0  0  0  0  0  0
    2.5734    0.2297    0.1907 C   0  0  0  0  0  0  0  0  0  0  0  0
    3.9314   -0.1057    0.4832 C   0  0  0  0  0  0  0  0  0  0  0  0
    3.4585    1.3552    0.1745 C   0  0  0  0  0  0  0  0  0  0  0  0
    1.7312   -0.2761   -0.9121 C   0  0  0  0  0  0  0  0  0  0  0  0
   -1.4300   -1.1458    0.9358 C   0  0  0  0  0  0  0  0  0  0  0  0
   -2.7933   -1.0451    0.2343 C   0  0  1  0  0  0  0  0  0  0  0  0
   -3.8355   -1.0546    1.1360 O   0  0  0  0  0  0  0  0  0  0  0  0
   -2.6459    0.2622   -0.4999 C   0  0  1  0  0  0  0  0  0  0  0  0
   -3.1865    1.2551    0.3311 O   0  0  0  0  0  0  0  0  0  0  0  0
   -1.3886    1.8763    0.6588 H   0  0  0  0  0  0  0  0  0  0  0  0
   -1.0209    0.5235   -1.8413 H   0  0  0  0  0  0  0  0  0  0  0  0
   -0.7183   -1.5609   -1.0013 H   0  0  0  0  0  0  0  0  0  0  0  0
    0.9412    1.0087    1.3298 H   0  0  0  0  0  0  0  0  0  0  0  0
    1.6955   -0.4765    2.0219 H   0  0  0  0  0  0  0  0  0  0  0  0
    4.2834   -0.2453    1.5257 H   0  0  0  0  0  0  0  0  0  0  0  0
    4.6369   -0.5246   -0.2627 H   0  0  0  0  0  0  0  0  0  0  0  0
    3.7958    1.7495   -0.8286 H   0  0  0  0  0  0  0  0  0  0  0  0
    3.4964    2.0588    1.0219 H   0  0  0  0  0  0  0  0  0  0  0  0
    1.2512    0.5880   -1.4598 H   0  0  0  0  0  0  0  0  0  0  0  0
    2.1835   -1.0196   -1.5931 H   0  0  0  0  0  0  0  0  0  0  0  0
   -1.3973   -0.4040    1.7595 H   0  0  0  0  0  0  0  0  0  0  0  0
   -1.2395   -2.1793    1.2568 H   0  0  0  0  0  0  0  0  0  0  0  0
   -2.8441   -1.8756   -0.5053 H   0  0  0  0  0  0  0  0  0  0  0  0
   -4.3661   -1.8855    0.9760 H   0  0  0  0  0  0  0  0  0  0  0  0
   -3.2305    0.2880   -1.4424 H   0  0  0  0  0  0  0  0  0  0  0  0
   -3.5937    1.9850   -0.1854 H   0  0  0  0  0  0  0  0  0  0  0  0
  1  2  1  0
  2  3  1  0
  3  4  1  0
  4  5  1  0
  5  6  1  0
  6  7  1  0
  7  8  1  0
  6  9  1  0
  3 10  1  0
 10 11  1  0
 11 12  1  0
 11 13  1  0
 13 14  1  0
 13  2  1  0
  9  4  1  0
  8  6  1  0
  1 15  1  0
  2 16  1  6
  3 17  1  6
  5 18  1  0
  5 19  1  0
  7 20  1  0
  7 21  1  0
  8 22  1  0
  8 23  1  0
  9 24  1  0
  9 25  1  0
 10 26  1  0
 10 27  1  0
 11 28  1  6
 12 29  1  0
 13 30  1  6
 14 31  1  0
M  END
$$$$

     RDKit          3D

 31 33  0  0  0  0  0  0  0  0999 V2000
   -1.3228   -2.1113   -0.7524 O   0  0  0  0  0  0  0  0  0  0  0  0
   -1.5787   -1.2586    0.3010 C   0  0  1  0  0  0  0  0  0  0  0  0
   -0.4903   -0.2559    0.5340 C   0  0  1  0  0  0  0  0  0  0  0  0
    0.2477    0.0528   -0.6556 N   0  0  0  0  0  0  0  0  0  0  0  0
    1.2435    1.0701   -0.4780 C   0  0  0  0  0  0  0  0  0  0  0  0
    2.2969    0.0470   -0.4751 C   0  0  0  0  0  0  0  0  0  0  0  0
    3.3488   -0.1553    0.4641 C   0  0  0  0  0  0  0  0  0  0  0  0
    3.6539    0.2145   -0.9930 C   0  0  0  0  0  0  0  0  0  0  0  0
    1.2999   -0.9099   -0.9780 C   0  0  0  0  0  0  0  0  0  0  0  0
   -1.2077    0.9025    1.1248 C   0  0  0  0  0  0  0  0  0  0  0  0
   -2.5961    0.9290    0.4846 C   0  0  1  0  0  0  0  0  0  0  0  0
   -2.6670    1.8937   -0.5183 O   0  0  0  0  0  0  0  0  0  0  0  0
   -2.8217   -0.4599   -0.0448 C   0  0  1  0  0  0  0  0  0  0  0  0
   -2.9210   -0.3712   -1.4412 O   0  0  0  0  0  0  0  0  0  0  0  0
   -0.9167   -2.9634   -0.4674 H   0  0  0  0  0  0  0  0  0  0  0  0
   -1.7960   -1.7945    1.2465 H   0  0  0  0  0  0  0  0  0  0  0  0
    0.2082   -0.6801    1.2994 H   0  0  0  0  0  0  0  0  0  0  0  0
    1.3484    1.7438   -1.3804 H   0  0  0  0  0  0  0  0  0  0  0  0
    1.2044    1.6652    0.4411 H   0  0  0  0  0  0  0  0  0  0  0  0
    3.5880    0.6423    1.2265 H   0  0  0  0  0  0  0  0  0  0  0  0
    3.6506   -1.1515    0.8280 H   0  0  0  0  0  0  0  0  0  0  0  0
    4.0426   -0.5830   -1.6509 H   0  0  0  0  0  0  0  0  0  0  0  0
    3.9561    1.2713   -1.2049 H   0  0  0  0  0  0  0  0  0  0  0  0
    1.2316   -1.8779   -0.4814 H   0  0  0  0  0  0  0  0  0  0  0  0
    1.4355   -1.0649   -2.0891 H   0  0  0  0  0  0  0  0  0  0  0  0
   -1.3040    0.7080    2.2299 H   0  0  0  0  0  0  0  0  0  0  0  0
   -0.7579    1.8822    0.9522 H   0  0  0  0  0  0  0  0  0  0  0  0
   -3.3128    1.2132    1.2850 H   0  0  0  0  0  0  0  0  0  0  0  0
   -1.9367    1.8389   -1.1687 H   0  0  0  0  0  0  0  0  0  0  0  0
   -3.7448   -0.8942    0.3759 H   0  0  0  0  0  0  0  0  0  0  0  0
   -3.3819    0.4572   -1.7043 H   0  0  0  0  0  0  0  0  0  0  0  0
  1  2  1  0
  2  3  1  0
  3  4  1  0
  4  5  1  0
  5  6  1  0
  6  7  1  0
  7  8  1  0
  6  9  1  0
  3 10  1  0
 10 11  1  0
 11 12  1  0
 11 13  1  0
 13 14  1  0
 13  2  1  0
  9  4  1  0
  8  6  1  0
  1 15  1  0
  2 16  1  1
  3 17  1  1
  5 18  1  0
  5 19  1  0
  7 20  1  0
  7 21  1  0
  8 22  1  0
  8 23  1  0
  9 24  1  0
  9 25  1  0
 10 26  1  0
 10 27  1  0
 11 28  1  1
 12 29  1  0
 13 30  1  1
 14 31  1  0
M  END
$$$$

     RDKit          3D

 31 33  0  0  0  0  0  0  0  0999 V2000
   -0.5658   -0.6495    1.6426 O   0  0  0  0  0  0  0  0  0  0  0  0
   -0.8937    0.4811    0.9400 C   0  0  1  0  0  0  0  0  0  0  0  0
   -0.8286    0.2771   -0.5759 C   0  0  1  0  0  0  0  0  0  0  0  0
    0.4289    0.1279   -1.1161 N   0  0  0  0  0  0  0  0  0  0  0  0
    1.3903    1.1822   -1.0301 C   0  0  0  0  0  0  0  0  0  0  0  0
    2.4165    0.1441   -0.7231 C   0  0  0  0  0  0  0  0  0  0  0  0
    3.4966    0.2330    0.2136 C   0  0  0  0  0  0  0  0  0  0  0  0
    3.7182    0.0306   -1.3229 C   0  0  0  0  0  0  0  0  0  0  0  0
    1.3324   -0.8840   -0.7477 C   0  0  0  0  0  0  0  0  0  0  0  0
   -1.8233   -0.8030   -0.7629 C   0  0  0  0  0  0  0  0  0  0  0  0
   -2.8366   -0.6746    0.3656 C   0  0  1  0  0  0  0  0  0  0  0  0
   -2.8086   -1.7550    1.2315 O   0  0  0  0  0  0  0  0  0  0  0  0
   -2.4223    0.6227    1.0273 C   0  0  1  0  0  0  0  0  0  0  0  0
   -2.8682    0.7665    2.3037 O   0  0  0  0  0  0  0  0  0  0  0  0
    0.2530   -0.5852    2.1865 H   0  0  0  0  0  0  0  0  0  0  0  0
   -0.3835    1.3890    1.2659 H   0  0  0  0  0  0  0  0  0  0  0  0
   -1.2908    1.2261   -0.9874 H   0  0  0  0  0  0  0  0  0  0  0  0
    1.2406    1.9205   -0.2188 H   0  0  0  0  0  0  0  0  0  0  0  0
    1.5482    1.6428   -2.0282 H   0  0  0  0  0  0  0  0  0  0  0  0
    3.7949    1.2421    0.5955 H   0  0  0  0  0  0  0  0  0  0  0  0
    3.7593   -0.6205    0.8487 H   0  0  0  0  0  0  0  0  0  0  0  0
    4.1232   -0.9525   -1.5983 H   0  0  0  0  0  0  0  0  0  0  0  0
    4.2061    0.8915   -1.8430 H   0  0  0  0  0  0  0  0  0  0  0  0
    1.1648   -1.4791    0.1492 H   0  0  0  0  0  0  0  0  0  0  0  0
    1.5161   -1.5878   -1.6130 H   0  0  0  0  0  0  0  0  0  0  0  0
   -2.3560   -0.6893   -1.7403 H   0  0  0  0  0  0  0  0  0  0  0  0
   -1.4039   -1.8280   -0.7272 H   0  0  0  0  0  0  0  0  0  0  0  0
   -3.8705   -0.6142   -0.0340 H   0  0  0  0  0  0  0  0  0  0  0  0
   -3.7012   -1.9588    1.6177 H   0  0  0  0  0  0  0  0  0  0  0  0
   -2.7532    1.4367    0.3301 H   0  0  0  0  0  0  0  0  0  0  0  0
   -3.5830    1.4674    2.3033 H   0  0  0  0  0  0  0  0  0  0  0  0
  1  2  1  0
  2  3  1  0
  3  4  1  0
  4  5  1  0
  5  6  1  0
  6  7  1  0
  7  8  1  0
  6  9  1  0
  3 10  1  0
 10 11  1  0
 11 12  1  0
 11 13  1  0
 13 14  1  0
 13  2  1  0
  9  4  1  0
  8  6  1  0
  1 15  1  0
  2 16  1  1
  3 17  1  6
  5 18  1  0
  5 19  1  0
  7 20  1  0
  7 21  1  0
  8 22  1  0
  8 23  1  0
  9 24  1  0
  9 25  1  0
 10 26  1  0
 10 27  1  0
 11 28  1  6
 12 29  1  0
 13 30  1  6
 14 31  1  0
M  END
$$$$

     RDKit          3D

 31 33  0  0  0  0  0  0  0  0999 V2000
    1.9548   -1.7988   -0.7365 O   0  0  0  0  0  0  0  0  0  0  0  0
    1.5722   -0.4782   -1.0272 C   0  0  1  0  0  0  0  0  0  0  0  0
    0.3660   -0.1821   -0.1932 C   0  0  1  0  0  0  0  0  0  0  0  0
   -0.5553   -1.2633   -0.2028 N   0  0  0  0  0  0  0  0  0  0  0  0
   -1.6540   -1.1408    0.7550 C   0  0  0  0  0  0  0  0  0  0  0  0
   -2.3337   -0.2634   -0.2031 C   0  0  0  0  0  0  0  0  0  0  0  0
   -2.5368    1.1583   -0.0846 C   0  0  0  0  0  0  0  0  0  0  0  0
   -3.7045    0.1458   -0.2395 C   0  0  0  0  0  0  0  0  0  0  0  0
   -1.5715   -0.9808   -1.2386 C   0  0  0  0  0  0  0  0  0  0  0  0
    0.9708    0.1435    1.1393 C   0  0  0  0  0  0  0  0  0  0  0  0
    1.9725    1.2152    0.6781 C   0  0  1  0  0  0  0  0  0  0  0  0
    2.8338    1.5937    1.6647 O   0  0  0  0  0  0  0  0  0  0  0  0
    2.6232    0.4995   -0.4830 C   0  0  1  0  0  0  0  0  0  0  0  0
    3.7348   -0.1644    0.0082 O   0  0  0  0  0  0  0  0  0  0  0  0
    2.6599   -2.0687   -1.3532 H   0  0  0  0  0  0  0  0  0  0  0  0
    1.3729   -0.3192   -2.0935 H   0  0  0  0  0  0  0  0  0  0  0  0
   -0.0833    0.7808   -0.5759 H   0  0  0  0  0  0  0  0  0  0  0  0
   -1.3675   -0.7104    1.7309 H   0  0  0  0  0  0  0  0  0  0  0  0
   -2.1640   -2.1406    0.8250 H   0  0  0  0  0  0  0  0  0  0  0  0
   -2.4155    1.8878   -0.9053 H   0  0  0  0  0  0  0  0  0  0  0  0
   -2.4799    1.5940    0.9565 H   0  0  0  0  0  0  0  0  0  0  0  0
   -4.3535   -0.0082    0.6373 H   0  0  0  0  0  0  0  0  0  0  0  0
   -4.2555    0.2063   -1.2011 H   0  0  0  0  0  0  0  0  0  0  0  0
   -1.9794   -1.9232   -1.6433 H   0  0  0  0  0  0  0  0  0  0  0  0
   -1.1916   -0.3217   -2.0551 H   0  0  0  0  0  0  0  0  0  0  0  0
    0.2641    0.5209    1.8733 H   0  0  0  0  0  0  0  0  0  0  0  0
    1.6184   -0.6929    1.5198 H   0  0  0  0  0  0  0  0  0  0  0  0
    1.3490    2.0288    0.2570 H   0  0  0  0  0  0  0  0  0  0  0  0
    2.8556    2.6033    1.6671 H   0  0  0  0  0  0  0  0  0  0  0  0
    2.9178    1.1885   -1.2884 H   0  0  0  0  0  0  0  0  0  0  0  0
    3.5802   -1.1096    0.2234 H   0  0  0  0  0  0  0  0  0  0  0  0
  1  2  1  0
  2  3  1  0
  3  4  1  0
  4  5  1  0
  5  6  1  0
  6  7  1  0
  7  8  1  0
  6  9  1  0
  3 10  1  0
 10 11  1  0
 11 12  1  0
 11 13  1  0
 13 14  1  0
 13  2  1  0
  9  4  1  0
  8  6  1  0
  1 15  1  0
  2 16  1  6
  3 17  1  6
  5 18  1  0
  5 19  1  0
  7 20  1  0
  7 21  1  0
  8 22  1  0
  8 23  1  0
  9 24  1  0
  9 25  1  0
 10 26  1  0
 10 27  1  0
 11 28  1  6
 12 29  1  0
 13 30  1  6
 14 31  1  0
M  END
$$$$
