
     RDKit          3D

 22 23  0  0  0  0  0  0  0  0999 V2000
    3.6179   -0.5790    0.6432 C   0  0  0  0  0  0  0  0  0  0  0  0
    2.2525   -0.3090    0.2090 N   0  0  0  0  0  0  0  0  0  0  0  0
    1.8272    0.6339   -0.7668 C   0  0  0  0  0  0  0  0  0  0  0  0
    2.4870    1.6751   -1.0855 O   0  0  0  0  0  0  0  0  0  0  0  0
    0.5077    0.1952   -1.3324 C   0  0  0  0  0  0  0  0  0  0  0  0
   -0.0888   -0.5065   -0.1202 C   0  0  2  0  0  0  0  0  0  0  0  0
   -0.9262    0.3949    0.6036 N   0  0  0  0  0  0  0  0  0  0  0  0
   -2.1561    0.5381    0.2673 C   0  0  0  0  0  0  0  0  0  0  0  0
   -2.7668   -0.1015   -0.7419 N   0  0  0  0  0  0  0  0  0  0  0  0
   -4.0336    0.2943   -0.7940 N   0  0  0  0  0  0  0  0  0  0  0  0
   -4.2098    1.1814    0.1848 C   0  0  0  0  0  0  0  0  0  0  0  0
   -3.0692    1.3110    0.8076 O   0  0  0  0  0  0  0  0  0  0  0  0
    1.0967   -0.9468    0.6895 C   0  0  0  0  0  0  0  0  0  0  0  0
    0.9977   -1.7626    1.6365 O   0  0  0  0  0  0  0  0  0  0  0  0
    3.9164   -1.6196    0.4345 H   0  0  0  0  0  0  0  0  0  0  0  0
    4.3404    0.0868    0.1696 H   0  0  0  0  0  0  0  0  0  0  0  0
    3.7182   -0.4374    1.7507 H   0  0  0  0  0  0  0  0  0  0  0  0
    0.6869   -0.5789   -2.1255 H   0  0  0  0  0  0  0  0  0  0  0  0
   -0.1062    1.0276   -1.6712 H   0  0  0  0  0  0  0  0  0  0  0  0
   -0.6380   -1.3956   -0.4302 H   0  0  0  0  0  0  0  0  0  0  0  0
   -2.3334   -0.8097   -1.4030 H   0  0  0  0  0  0  0  0  0  0  0  0
   -5.1205    1.7086    0.4349 H   0  0  0  0  0  0  0  0  0  0  0  0
  1  2  1  0
  2  3  1  0
  3  4  2  0
  3  5  1  0
  5  6  1  0
  6  7  1  0
  7  8  2  3
  8  9  1  0
  9 10  1  0
 10 11  2  0
 11 12  1  0
  6 13  1  0
 13 14  2  0
 13  2  1  0
 12  8  1  0
  1 15  1  0
  1 16  1  0
  1 17  1  0
  5 18  1  0
  5 19  1  0
  6 20  1  6
  9 21  1  0
 11 22  1  0
M  END
$$$$

     RDKit          3D

 22 23  0  0  0  0  0  0  0  0999 V2000
   -2.9543    1.1942    0.7846 C   0  0  0  0  0  0  0  0  0  0  0  0
   -2.0349    0.2892    0.1379 N   0  0  0  0  0  0  0  0  0  0  0  0
   -2.3952   -0.9670   -0.4472 C   0  0  0  0  0  0  0  0  0  0  0  0
   -3.5607   -1.3138   -0.7703 O   0  0  0  0  0  0  0  0  0  0  0  0
   -1.1191   -1.7379   -0.5793 C   0  0  0  0  0  0  0  0  0  0  0  0
   -0.1086   -0.6498   -0.7955 C   0  0  2  0  0  0  0  0  0  0  0  0
    1.1988   -1.0222   -0.3096 N   0  0  0  0  0  0  0  0  0  0  0  0
    2.2157   -0.2597   -0.3252 C   0  0  0  0  0  0  0  0  0  0  0  0
    3.4504   -0.5603    0.1146 N   0  0  0  0  0  0  0  0  0  0  0  0
    4.2475    0.4696   -0.0594 N   0  0  0  0  0  0  0  0  0  0  0  0
    3.5125    1.4464   -0.6195 C   0  0  0  0  0  0  0  0  0  0  0  0
    2.3002    0.9741   -0.7643 O   0  0  0  0  0  0  0  0  0  0  0  0
   -0.6290    0.4886   -0.0267 C   0  0  0  0  0  0  0  0  0  0  0  0
    0.0055    1.4821    0.4267 O   0  0  0  0  0  0  0  0  0  0  0  0
   -3.4747    0.6585    1.6035 H   0  0  0  0  0  0  0  0  0  0  0  0
   -3.7176    1.5885    0.0830 H   0  0  0  0  0  0  0  0  0  0  0  0
   -2.3926    2.0274    1.2332 H   0  0  0  0  0  0  0  0  0  0  0  0
   -1.1927   -2.4435   -1.4157 H   0  0  0  0  0  0  0  0  0  0  0  0
   -0.8940   -2.2260    0.3976 H   0  0  0  0  0  0  0  0  0  0  0  0
    0.0038   -0.4116   -1.8905 H   0  0  0  0  0  0  0  0  0  0  0  0
    3.7390   -1.4747    0.5331 H   0  0  0  0  0  0  0  0  0  0  0  0
    3.7998    2.4480   -0.9180 H   0  0  0  0  0  0  0  0  0  0  0  0
  1  2  1  0
  2  3  1  0
  3  4  2  0
  3  5  1  0
  5  6  1  0
  6  7  1  0
  7  8  2  3
  8  9  1  0
  9 10  1  0
 10 11  2  0
 11 12  1  0
  6 13  1  0
 13 14  2  0
 13  2  1  0
 12  8  1  0
  1 15  1  0
  1 16  1  0
  1 17  1  0
  5 18  1  0
  5 19  1  0
  6 20  1  6
  9 21  1  0
 11 22  1  0
M  END
$$$$

     RDKit          3D

 22 23  0  0  0  0  0  0  0  0999 V2000
    3.7059    0.5595   -0.1498 C   0  0  0  0  0  0  0  0  0  0  0  0
    2.2785    0.2848   -0.0710 N   0  0  0  0  0  0  0  0  0  0  0  0
    1.6867   -0.8231    0.5733 C   0  0  0  0  0  0  0  0  0  0  0  0
    2.2655   -1.9127    0.8869 O   0  0  0  0  0  0  0  0  0  0  0  0
    0.2486   -0.5232    0.8394 C   0  0  0  0  0  0  0  0  0  0  0  0
   -0.0406    0.6286   -0.0665 C   0  0  2  0  0  0  0  0  0  0  0  0
   -0.9908    0.2264   -1.0819 N   0  0  0  0  0  0  0  0  0  0  0  0
   -2.1750   -0.1229   -0.7106 C   0  0  0  0  0  0  0  0  0  0  0  0
   -2.6669   -0.1667    0.5355 N   0  0  0  0  0  0  0  0  0  0  0  0
   -3.9249   -0.5756    0.5223 N   0  0  0  0  0  0  0  0  0  0  0  0
   -4.2014   -0.7867   -0.7868 C   0  0  0  0  0  0  0  0  0  0  0  0
   -3.1569   -0.5159   -1.5155 O   0  0  0  0  0  0  0  0  0  0  0  0
    1.2380    1.0745   -0.6226 C   0  0  0  0  0  0  0  0  0  0  0  0
    1.3884    2.0028   -1.4511 O   0  0  0  0  0  0  0  0  0  0  0  0
    4.1378   -0.0707   -0.9550 H   0  0  0  0  0  0  0  0  0  0  0  0
    3.9273    1.6020   -0.3947 H   0  0  0  0  0  0  0  0  0  0  0  0
    4.2174    0.3000    0.7792 H   0  0  0  0  0  0  0  0  0  0  0  0
    0.2027   -0.2065    1.9110 H   0  0  0  0  0  0  0  0  0  0  0  0
   -0.3576   -1.4164    0.6363 H   0  0  0  0  0  0  0  0  0  0  0  0
   -0.4988    1.4840    0.4867 H   0  0  0  0  0  0  0  0  0  0  0  0
   -2.1210    0.0893    1.3867 H   0  0  0  0  0  0  0  0  0  0  0  0
   -5.1629   -1.1314   -1.1422 H   0  0  0  0  0  0  0  0  0  0  0  0
  1  2  1  0
  2  3  1  0
  3  4  2  0
  3  5  1  0
  5  6  1  0
  6  7  1  0
  7  8  2  3
  8  9  1  0
  9 10  1  0
 10 11  2  0
 11 12  1  0
  6 13  1  0
 13 14  2  0
 13  2  1  0
 12  8  1  0
  1 15  1  0
  1 16  1  0
  1 17  1  0
  5 18  1  0
  5 19  1  0
  6 20  1  1
  9 21  1  0
 11 22  1  0
M  END
$$$$

     RDKit          3D

 22 23  0  0  0  0  0  0  0  0999 V2000
    3.5396    0.4972   -0.1087 C   0  0  0  0  0  0  0  0  0  0  0  0
    2.1764    0.0100   -0.2472 N   0  0  0  0  0  0  0  0  0  0  0  0
    1.3336    0.0895   -1.4095 C   0  0  0  0  0  0  0  0  0  0  0  0
    1.5564    0.8389   -2.3830 O   0  0  0  0  0  0  0  0  0  0  0  0
    0.2363   -0.8625   -1.1681 C   0  0  0  0  0  0  0  0  0  0  0  0
    0.0697   -0.8046    0.3270 C   0  0  2  0  0  0  0  0  0  0  0  0
   -0.7088    0.2707    0.7992 N   0  0  0  0  0  0  0  0  0  0  0  0
   -1.9464    0.4614    0.6942 C   0  0  0  0  0  0  0  0  0  0  0  0
   -2.8316   -0.3404    0.0904 N   0  0  0  0  0  0  0  0  0  0  0  0
   -4.0566    0.1961    0.1823 N   0  0  0  0  0  0  0  0  0  0  0  0
   -3.8931    1.3475    0.8591 C   0  0  0  0  0  0  0  0  0  0  0  0
   -2.6202    1.4817    1.1533 O   0  0  0  0  0  0  0  0  0  0  0  0
    1.4666   -0.6389    0.7981 C   0  0  0  0  0  0  0  0  0  0  0  0
    1.8907   -1.0185    1.9193 O   0  0  0  0  0  0  0  0  0  0  0  0
    3.9412    0.6852   -1.1231 H   0  0  0  0  0  0  0  0  0  0  0  0
    3.4650    1.4822    0.4219 H   0  0  0  0  0  0  0  0  0  0  0  0
    4.1869   -0.1923    0.4522 H   0  0  0  0  0  0  0  0  0  0  0  0
    0.6071   -1.8921   -1.4163 H   0  0  0  0  0  0  0  0  0  0  0  0
   -0.6763   -0.6362   -1.7254 H   0  0  0  0  0  0  0  0  0  0  0  0
   -0.3767   -1.7579    0.6532 H   0  0  0  0  0  0  0  0  0  0  0  0
   -2.6782   -1.2467   -0.3939 H   0  0  0  0  0  0  0  0  0  0  0  0
   -4.6815    2.0296    1.1081 H   0  0  0  0  0  0  0  0  0  0  0  0
  1  2  1  0
  2  3  1  0
  3  4  2  0
  3  5  1  0
  5  6  1  0
  6  7  1  0
  7  8  2  3
  8  9  1  0
  9 10  1  0
 10 11  2  0
 11 12  1  0
  6 13  1  0
 13 14  2  0
 13  2  1  0
 12  8  1  0
  1 15  1  0
  1 16  1  0
  1 17  1  0
  5 18  1  0
  5 19  1  0
  6 20  1  1
  9 21  1  0
 11 22  1  0
M  END
$$$$

     RDKit          3D

 22 23  0  0  0  0  0  0  0  0999 V2000
   -3.2241    1.4206    0.0020 C   0  0  0  0  0  0  0  0  0  0  0  0
   -2.1854    0.3890   -0.0908 N   0  0  0  0  0  0  0  0  0  0  0  0
   -2.1390   -0.6893   -1.0163 C   0  0  0  0  0  0  0  0  0  0  0  0
   -3.0098   -0.9178   -1.8943 O   0  0  0  0  0  0  0  0  0  0  0  0
   -0.8984   -1.4783   -0.7591 C   0  0  0  0  0  0  0  0  0  0  0  0
   -0.0252   -0.4445   -0.0820 C   0  0  2  0  0  0  0  0  0  0  0  0
    1.0581   -0.9886    0.6495 N   0  0  0  0  0  0  0  0  0  0  0  0
    2.2327   -0.4257    0.5211 C   0  0  0  0  0  0  0  0  0  0  0  0
    3.3816   -0.7923    1.1285 N   0  0  0  0  0  0  0  0  0  0  0  0
    4.3523    0.0208    0.7441 N   0  0  0  0  0  0  0  0  0  0  0  0
    3.8224    0.8985   -0.1026 C   0  0  0  0  0  0  0  0  0  0  0  0
    2.5584    0.6086   -0.2168 O   0  0  0  0  0  0  0  0  0  0  0  0
   -1.0184    0.2848    0.7464 C   0  0  0  0  0  0  0  0  0  0  0  0
   -0.9407    0.7360    1.9042 O   0  0  0  0  0  0  0  0  0  0  0  0
   -3.5375    1.6460   -1.0598 H   0  0  0  0  0  0  0  0  0  0  0  0
   -4.0686    1.0874    0.6232 H   0  0  0  0  0  0  0  0  0  0  0  0
   -2.8419    2.3632    0.4063 H   0  0  0  0  0  0  0  0  0  0  0  0
   -1.1455   -2.3223   -0.0695 H   0  0  0  0  0  0  0  0  0  0  0  0
   -0.4342   -1.8108   -1.6913 H   0  0  0  0  0  0  0  0  0  0  0  0
    0.2922    0.2651   -0.8892 H   0  0  0  0  0  0  0  0  0  0  0  0
    3.4810   -1.5808    1.7863 H   0  0  0  0  0  0  0  0  0  0  0  0
    4.2899    1.7305   -0.6399 H   0  0  0  0  0  0  0  0  0  0  0  0
  1  2  1  0
  2  3  1  0
  3  4  2  0
  3  5  1  0
  5  6  1  0
  6  7  1  0
  7  8  2  3
  8  9  1  0
  9 10  1  0
 10 11  2  0
 11 12  1  0
  6 13  1  0
 13 14  2  0
 13  2  1  0
 12  8  1  0
  1 15  1  0
  1 16  1  0
  1 17  1  0
  5 18  1  0
  5 19  1  0
  6 20  1  6
  9 21  1  0
 11 22  1  0
M  END
$$$$

     RDKit          3D

 22 23  0  0  0  0  0  0  0  0999 V2000
    2.9356    1.4991   -0.4102 C   0  0  0  0  0  0  0  0  0  0  0  0
    2.0000    0.3940   -0.2382 N   0  0  0  0  0  0  0  0  0  0  0  0
    2.3619   -0.9550   -0.0841 C   0  0  0  0  0  0  0  0  0  0  0  0
    3.5277   -1.4284   -0.1947 O   0  0  0  0  0  0  0  0  0  0  0  0
    1.1577   -1.7438    0.2305 C   0  0  0  0  0  0  0  0  0  0  0  0
    0.0971   -0.7130    0.5155 C   0  0  2  0  0  0  0  0  0  0  0  0
   -1.1983   -1.1420    0.0634 N   0  0  0  0  0  0  0  0  0  0  0  0
   -2.2054   -0.3845    0.2374 C   0  0  0  0  0  0  0  0  0  0  0  0
   -3.4749   -0.6714   -0.1414 N   0  0  0  0  0  0  0  0  0  0  0  0
   -4.2270    0.3557    0.2107 N   0  0  0  0  0  0  0  0  0  0  0  0
   -3.4511    1.2828    0.8044 C   0  0  0  0  0  0  0  0  0  0  0  0
   -2.2365    0.7883    0.7964 O   0  0  0  0  0  0  0  0  0  0  0  0
    0.5813    0.4945   -0.1980 C   0  0  0  0  0  0  0  0  0  0  0  0
   -0.1307    1.4073   -0.6639 O   0  0  0  0  0  0  0  0  0  0  0  0
    2.4447    2.4546   -0.1864 H   0  0  0  0  0  0  0  0  0  0  0  0
    3.7969    1.3775    0.3081 H   0  0  0  0  0  0  0  0  0  0  0  0
    3.3052    1.5349   -1.4537 H   0  0  0  0  0  0  0  0  0  0  0  0
    0.8333   -2.3124   -0.6596 H   0  0  0  0  0  0  0  0  0  0  0  0
    1.3247   -2.4236    1.0747 H   0  0  0  0  0  0  0  0  0  0  0  0
    0.0980   -0.5225    1.6088 H   0  0  0  0  0  0  0  0  0  0  0  0
   -3.8012   -1.5326   -0.6181 H   0  0  0  0  0  0  0  0  0  0  0  0
   -3.7389    2.2406    1.2112 H   0  0  0  0  0  0  0  0  0  0  0  0
  1  2  1  0
  2  3  1  0
  3  4  2  0
  3  5  1  0
  5  6  1  0
  6  7  1  0
  7  8  2  3
  8  9  1  0
  9 10  1  0
 10 11  2  0
 11 12  1  0
  6 13  1  0
 13 14  2  0
 13  2  1  0
 12  8  1  0
  1 15  1  0
  1 16  1  0
  1 17  1  0
  5 18  1  0
  5 19  1  0
  6 20  1  1
  9 21  1  0
 11 22  1  0
M  END
$$$$

     RDKit          3D

 22 23  0  0  0  0  0  0  0  0999 V2000
   -3.4944    0.1341    1.0783 C   0  0  0  0  0  0  0  0  0  0  0  0
   -2.2769    0.0510    0.2616 N   0  0  0  0  0  0  0  0  0  0  0  0
   -1.9901    0.7535   -0.9412 C   0  0  0  0  0  0  0  0  0  0  0  0
   -2.7210    1.6249   -1.4673 O   0  0  0  0  0  0  0  0  0  0  0  0
   -0.6788    0.2485   -1.4258 C   0  0  0  0  0  0  0  0  0  0  0  0
   -0.0245   -0.1669   -0.1546 C   0  0  2  0  0  0  0  0  0  0  0  0
    1.1146   -1.0050   -0.2994 N   0  0  0  0  0  0  0  0  0  0  0  0
    2.2847   -0.5009   -0.0796 C   0  0  0  0  0  0  0  0  0  0  0  0
    3.4413   -1.1594   -0.1747 N   0  0  0  0  0  0  0  0  0  0  0  0
    4.4352   -0.3102    0.1257 N   0  0  0  0  0  0  0  0  0  0  0  0
    3.8831    0.8638    0.4032 C   0  0  0  0  0  0  0  0  0  0  0  0
    2.5916    0.7416    0.2778 O   0  0  0  0  0  0  0  0  0  0  0  0
   -1.1501   -0.7951    0.5817 C   0  0  0  0  0  0  0  0  0  0  0  0
   -1.2056   -1.7963    1.3133 O   0  0  0  0  0  0  0  0  0  0  0  0
   -4.1698    0.8662    0.5777 H   0  0  0  0  0  0  0  0  0  0  0  0
   -3.2796    0.5457    2.0853 H   0  0  0  0  0  0  0  0  0  0  0  0
   -3.9482   -0.8516    1.2250 H   0  0  0  0  0  0  0  0  0  0  0  0
   -0.9193   -0.6558   -2.0577 H   0  0  0  0  0  0  0  0  0  0  0  0
   -0.1188    0.9991   -2.0022 H   0  0  0  0  0  0  0  0  0  0  0  0
    0.2190    0.7777    0.4141 H   0  0  0  0  0  0  0  0  0  0  0  0
    3.6269   -2.1464   -0.4280 H   0  0  0  0  0  0  0  0  0  0  0  0
    4.3806    1.7815    0.6866 H   0  0  0  0  0  0  0  0  0  0  0  0
  1  2  1  0
  2  3  1  0
  3  4  2  0
  3  5  1  0
  5  6  1  0
  6  7  1  0
  7  8  2  3
  8  9  1  0
  9 10  1  0
 10 11  2  0
 11 12  1  0
  6 13  1  0
 13 14  2  0
 13  2  1  0
 12  8  1  0
  1 15  1  0
  1 16  1  0
  1 17  1  0
  5 18  1  0
  5 19  1  0
  6 20  1  1
  9 21  1  0
 11 22  1  0
M  END
$$$$

     RDKit          3D

 22 23  0  0  0  0  0  0  0  0999 V2000
   -2.9715    1.3769    0.4636 C   0  0  0  0  0  0  0  0  0  0  0  0
   -2.0323    0.3457    0.1356 N   0  0  0  0  0  0  0  0  0  0  0  0
   -2.3430   -0.9021   -0.4895 C   0  0  0  0  0  0  0  0  0  0  0  0
   -3.4654   -1.2639   -0.9196 O   0  0  0  0  0  0  0  0  0  0  0  0
   -1.1026   -1.7328   -0.5569 C   0  0  0  0  0  0  0  0  0  0  0  0
   -0.0280   -0.6760   -0.5608 C   0  0  2  0  0  0  0  0  0  0  0  0
    1.2330   -1.1715   -0.0729 N   0  0  0  0  0  0  0  0  0  0  0  0
    2.2123   -0.3502    0.0485 C   0  0  0  0  0  0  0  0  0  0  0  0
    3.4542   -0.6651    0.4921 N   0  0  0  0  0  0  0  0  0  0  0  0
    4.1742    0.4424    0.4738 N   0  0  0  0  0  0  0  0  0  0  0  0
    3.3913    1.4331    0.0252 C   0  0  0  0  0  0  0  0  0  0  0  0
    2.2269    0.9303   -0.2204 O   0  0  0  0  0  0  0  0  0  0  0  0
   -0.6197    0.3476    0.3593 C   0  0  0  0  0  0  0  0  0  0  0  0
   -0.0120    1.0639    1.1634 O   0  0  0  0  0  0  0  0  0  0  0  0
   -3.7284    1.4386   -0.3426 H   0  0  0  0  0  0  0  0  0  0  0  0
   -2.4333    2.3513    0.5919 H   0  0  0  0  0  0  0  0  0  0  0  0
   -3.4613    1.0850    1.4310 H   0  0  0  0  0  0  0  0  0  0  0  0
   -1.0331   -2.3553    0.3617 H   0  0  0  0  0  0  0  0  0  0  0  0
   -1.0264   -2.3093   -1.4856 H   0  0  0  0  0  0  0  0  0  0  0  0
    0.1415   -0.2670   -1.5667 H   0  0  0  0  0  0  0  0  0  0  0  0
    3.7885   -1.6000    0.7929 H   0  0  0  0  0  0  0  0  0  0  0  0
    3.6350    2.4784   -0.1241 H   0  0  0  0  0  0  0  0  0  0  0  0
  1  2  1  0
  2  3  1  0
  3  4  2  0
  3  5  1  0
  5  6  1  0
  6  7  1  0
  7  8  2  3
  8  9  1  0
  9 10  1  0
 10 11  2  0
 11 12  1  0
  6 13  1  0
 13 14  2  0
 13  2  1  0
 12  8  1  0
  1 15  1  0
  1 16  1  0
  1 17  1  0
  5 18  1  0
  5 19  1  0
  6 20  1  6
  9 21  1  0
 11 22  1  0
M  END
$$$$
