
     RDKit          3D

 22 23  0  0  0  0  0  0  0  0999 V2000
   -3.6476    1.0853   -0.0962 O   0  0  0  0  0  0  0  0  0  0  0  0
   -3.5546    0.0053    0.5497 C   0  0  0  0  0  0  0  0  0  0  0  0
   -2.3436   -0.6968    0.5193 O   0  0  0  0  0  0  0  0  0  0  0  0
   -1.2861   -0.1528   -0.2382 C   0  0  2  0  0  0  0  0  0  0  0  0
   -0.8456   -1.1355   -1.3370 C   0  0  0  0  0  0  0  0  0  0  0  0
    0.5688   -1.1680   -1.2792 O   0  0  0  0  0  0  0  0  0  0  0  0
    0.8973    0.0167   -0.7513 C   0  0  1  0  0  0  0  0  0  0  0  0
   -0.0193    0.0047    0.5007 C   0  0  1  0  0  0  0  0  0  0  0  0
    0.3184    1.2154    0.9962 O   0  0  0  0  0  0  0  0  0  0  0  0
    1.7316    1.1489    1.0791 C   0  0  0  0  0  0  0  0  0  0  0  0
    2.1728    0.2305   -0.0750 C   0  0  1  0  0  0  0  0  0  0  0  0
    2.7274   -0.9449    0.4224 O   0  0  0  0  0  0  0  0  0  0  0  0
   -4.4149   -0.3675    1.1219 H   0  0  0  0  0  0  0  0  0  0  0  0
   -1.5435    0.7939   -0.7355 H   0  0  0  0  0  0  0  0  0  0  0  0
   -1.2169   -0.8491   -2.3188 H   0  0  0  0  0  0  0  0  0  0  0  0
   -1.1800   -2.1453   -0.9962 H   0  0  0  0  0  0  0  0  0  0  0  0
    0.5816    0.8994   -1.3331 H   0  0  0  0  0  0  0  0  0  0  0  0
    0.2421   -0.8593    1.1409 H   0  0  0  0  0  0  0  0  0  0  0  0
    2.1166    2.1647    0.8356 H   0  0  0  0  0  0  0  0  0  0  0  0
    2.0645    0.7754    2.0475 H   0  0  0  0  0  0  0  0  0  0  0  0
    2.9561    0.7242   -0.6881 H   0  0  0  0  0  0  0  0  0  0  0  0
    3.6749   -0.7450    0.6352 H   0  0  0  0  0  0  0  0  0  0  0  0
  1  2  2  0
  2  3  1  0
  3  4  1  0
  4  5  1  0
  5  6  1  0
  6  7  1  0
  7  8  1  0
  8  9  1  0
  9 10  1  0
 10 11  1  0
 11 12  1  0
  8  4  1  0
 11  7  1  0
  2 13  1  0
  4 14  1  6
  5 15  1  0
  5 16  1  0
  7 17  1  6
  8 18  1  1
 10 19  1  0
 10 20  1  0
 11 21  1  6
 12 22  1  0
M  END
$$$$

     RDKit          3D

 22 23  0  0  0  0  0  0  0  0999 V2000
    3.0686    0.9854    2.2661 O   0  0  0  0  0  0  0  0  0  0  0  0
    3.1515    1.2288    1.0477 C   0  0  0  0  0  0  0  0  0  0  0  0
    2.2257    0.7315    0.1595 O   0  0  0  0  0  0  0  0  0  0  0  0
    1.1280   -0.0826    0.5719 C   0  0  2  0  0  0  0  0  0  0  0  0
    1.2867   -1.4000   -0.2086 C   0  0  0  0  0  0  0  0  0  0  0  0
    0.2216   -1.4021   -1.1502 O   0  0  0  0  0  0  0  0  0  0  0  0
   -0.7629   -0.9342   -0.3820 C   0  0  1  0  0  0  0  0  0  0  0  0
   -0.1402    0.4269    0.0304 C   0  0  1  0  0  0  0  0  0  0  0  0
   -1.1193    0.8335    0.8697 O   0  0  0  0  0  0  0  0  0  0  0  0
   -2.3393    0.5944    0.1938 C   0  0  0  0  0  0  0  0  0  0  0  0
   -2.0113   -0.4128   -0.9180 C   0  0  1  0  0  0  0  0  0  0  0  0
   -1.7785    0.2921   -2.0936 O   0  0  0  0  0  0  0  0  0  0  0  0
    3.9589    1.8354    0.6940 H   0  0  0  0  0  0  0  0  0  0  0  0
    1.1217   -0.2528    1.6548 H   0  0  0  0  0  0  0  0  0  0  0  0
    1.0977   -2.2063    0.5300 H   0  0  0  0  0  0  0  0  0  0  0  0
    2.2581   -1.4870   -0.6833 H   0  0  0  0  0  0  0  0  0  0  0  0
   -0.9174   -1.4660    0.5766 H   0  0  0  0  0  0  0  0  0  0  0  0
   -0.0213    1.0266   -0.8936 H   0  0  0  0  0  0  0  0  0  0  0  0
   -2.7724    1.5118   -0.2020 H   0  0  0  0  0  0  0  0  0  0  0  0
   -2.9973    0.0534    0.9033 H   0  0  0  0  0  0  0  0  0  0  0  0
   -2.8265   -1.1547   -1.0252 H   0  0  0  0  0  0  0  0  0  0  0  0
   -1.8321    1.2787   -1.9415 H   0  0  0  0  0  0  0  0  0  0  0  0
  1  2  2  0
  2  3  1  0
  3  4  1  0
  4  5  1  0
  5  6  1  0
  6  7  1  0
  7  8  1  0
  8  9  1  0
  9 10  1  0
 10 11  1  0
 11 12  1  0
  8  4  1  0
 11  7  1  0
  2 13  1  0
  4 14  1  1
  5 15  1  0
  5 16  1  0
  7 17  1  1
  8 18  1  6
 10 19  1  0
 10 20  1  0
 11 21  1  6
 12 22  1  0
M  END
$$$$

     RDKit          3D

 22 23  0  0  0  0  0  0  0  0999 V2000
    3.7025   -0.6713   -0.7084 O   0  0  0  0  0  0  0  0  0  0  0  0
    3.4612   -0.9393    0.4976 C   0  0  0  0  0  0  0  0  0  0  0  0
    2.2196   -0.5227    0.9728 O   0  0  0  0  0  0  0  0  0  0  0  0
    1.2907    0.1641    0.1314 C   0  0  2  0  0  0  0  0  0  0  0  0
    0.9893    1.5534    0.7246 C   0  0  0  0  0  0  0  0  0  0  0  0
   -0.4114    1.7058    0.6464 O   0  0  0  0  0  0  0  0  0  0  0  0
   -0.8871    0.7636   -0.1840 C   0  0  1  0  0  0  0  0  0  0  0  0
   -0.0235   -0.4394    0.2755 C   0  0  1  0  0  0  0  0  0  0  0  0
   -0.4942   -1.3673   -0.5569 O   0  0  0  0  0  0  0  0  0  0  0  0
   -1.8833   -1.3320   -0.2686 C   0  0  0  0  0  0  0  0  0  0  0  0
   -2.1957    0.1361    0.0721 C   0  0  1  0  0  0  0  0  0  0  0  0
   -2.5527    0.2140    1.4207 O   0  0  0  0  0  0  0  0  0  0  0  0
    4.1790   -1.4666    1.1369 H   0  0  0  0  0  0  0  0  0  0  0  0
    1.6660    0.3090   -0.8766 H   0  0  0  0  0  0  0  0  0  0  0  0
    1.5327    2.3438    0.2151 H   0  0  0  0  0  0  0  0  0  0  0  0
    1.2051    1.5110    1.8276 H   0  0  0  0  0  0  0  0  0  0  0  0
   -0.7242    0.9294   -1.2647 H   0  0  0  0  0  0  0  0  0  0  0  0
   -0.2787   -0.5692    1.3408 H   0  0  0  0  0  0  0  0  0  0  0  0
   -2.4767   -1.6837   -1.1100 H   0  0  0  0  0  0  0  0  0  0  0  0
   -1.9976   -1.9590    0.6531 H   0  0  0  0  0  0  0  0  0  0  0  0
   -3.0162    0.4709   -0.5768 H   0  0  0  0  0  0  0  0  0  0  0  0
   -3.3047    0.8495    1.5399 H   0  0  0  0  0  0  0  0  0  0  0  0
  1  2  2  0
  2  3  1  0
  3  4  1  0
  4  5  1  0
  5  6  1  0
  6  7  1  0
  7  8  1  0
  8  9  1  0
  9 10  1  0
 10 11  1  0
 11 12  1  0
  8  4  1  0
 11  7  1  0
  2 13  1  0
  4 14  1  6
  5 15  1  0
  5 16  1  0
  7 17  1  6
  8 18  1  1
 10 19  1  0
 10 20  1  0
 11 21  1  6
 12 22  1  0
M  END
$$$$

     RDKit          3D

 22 23  0  0  0  0  0  0  0  0999 V2000
    3.6205    0.4646    1.3824 O   0  0  0  0  0  0  0  0  0  0  0  0
    3.4598    0.8792    0.2100 C   0  0  0  0  0  0  0  0  0  0  0  0
    2.3002    0.5971   -0.4798 O   0  0  0  0  0  0  0  0  0  0  0  0
    1.2457   -0.1528    0.0640 C   0  0  2  0  0  0  0  0  0  0  0  0
    0.9842   -1.4204   -0.7686 C   0  0  0  0  0  0  0  0  0  0  0  0
   -0.4174   -1.5111   -0.9137 O   0  0  0  0  0  0  0  0  0  0  0  0
   -0.8866   -0.8404    0.1482 C   0  0  1  0  0  0  0  0  0  0  0  0
   -0.0771    0.4714   -0.0292 C   0  0  1  0  0  0  0  0  0  0  0  0
   -0.5843    1.1770    0.9942 O   0  0  0  0  0  0  0  0  0  0  0  0
   -1.9691    1.1429    0.6813 C   0  0  0  0  0  0  0  0  0  0  0  0
   -2.2317   -0.2903    0.1844 C   0  0  1  0  0  0  0  0  0  0  0  0
   -2.9408   -0.3034   -0.9874 O   0  0  0  0  0  0  0  0  0  0  0  0
    4.2392    1.4738   -0.2879 H   0  0  0  0  0  0  0  0  0  0  0  0
    1.4387   -0.4929    1.0974 H   0  0  0  0  0  0  0  0  0  0  0  0
    1.3886   -2.3053   -0.2584 H   0  0  0  0  0  0  0  0  0  0  0  0
    1.3970   -1.2713   -1.7859 H   0  0  0  0  0  0  0  0  0  0  0  0
   -0.5370   -1.2566    1.1110 H   0  0  0  0  0  0  0  0  0  0  0  0
   -0.2483    0.8712   -1.0413 H   0  0  0  0  0  0  0  0  0  0  0  0
   -2.5917    1.3900    1.5383 H   0  0  0  0  0  0  0  0  0  0  0  0
   -2.1397    1.7893   -0.2111 H   0  0  0  0  0  0  0  0  0  0  0  0
   -2.8404   -0.7811    0.9818 H   0  0  0  0  0  0  0  0  0  0  0  0
   -2.6099    0.3692   -1.6297 H   0  0  0  0  0  0  0  0  0  0  0  0
  1  2  2  0
  2  3  1  0
  3  4  1  0
  4  5  1  0
  5  6  1  0
  6  7  1  0
  7  8  1  0
  8  9  1  0
  9 10  1  0
 10 11  1  0
 11 12  1  0
  8  4  1  0
 11  7  1  0
  2 13  1  0
  4 14  1  1
  5 15  1  0
  5 16  1  0
  7 17  1  1
  8 18  1  6
 10 19  1  0
 10 20  1  0
 11 21  1  1
 12 22  1  0
M  END
$$$$

     RDKit          3D

 22 23  0  0  0  0  0  0  0  0999 V2000
    3.7878   -0.8343    0.7959 O   0  0  0  0  0  0  0  0  0  0  0  0
    3.5705   -0.1645   -0.2326 C   0  0  0  0  0  0  0  0  0  0  0  0
    2.2716   -0.0318   -0.6804 O   0  0  0  0  0  0  0  0  0  0  0  0
    1.1588   -0.6022   -0.0567 C   0  0  2  0  0  0  0  0  0  0  0  0
    0.4096   -1.5675   -0.9922 C   0  0  0  0  0  0  0  0  0  0  0  0
   -0.9438   -1.1468   -0.9721 O   0  0  0  0  0  0  0  0  0  0  0  0
   -1.0759   -0.5963    0.2524 C   0  0  1  0  0  0  0  0  0  0  0  0
    0.1159    0.3961    0.1836 C   0  0  1  0  0  0  0  0  0  0  0  0
   -0.0396    0.9486    1.4061 O   0  0  0  0  0  0  0  0  0  0  0  0
   -1.3605    1.4586    1.2960 C   0  0  0  0  0  0  0  0  0  0  0  0
   -2.1393    0.3866    0.5113 C   0  0  1  0  0  0  0  0  0  0  0  0
   -2.7090    0.9296   -0.6258 O   0  0  0  0  0  0  0  0  0  0  0  0
    4.3463    0.3328   -0.8141 H   0  0  0  0  0  0  0  0  0  0  0  0
    1.3915   -1.1818    0.8419 H   0  0  0  0  0  0  0  0  0  0  0  0
    0.7911   -1.3503   -2.0084 H   0  0  0  0  0  0  0  0  0  0  0  0
    0.5220   -2.6059   -0.6744 H   0  0  0  0  0  0  0  0  0  0  0  0
   -0.9055   -1.2680    1.1073 H   0  0  0  0  0  0  0  0  0  0  0  0
   -0.0525    1.0689   -0.6778 H   0  0  0  0  0  0  0  0  0  0  0  0
   -1.8025    1.6616    2.2662 H   0  0  0  0  0  0  0  0  0  0  0  0
   -1.2753    2.3384    0.6294 H   0  0  0  0  0  0  0  0  0  0  0  0
   -2.9298    0.0202    1.2079 H   0  0  0  0  0  0  0  0  0  0  0  0
   -3.1314    1.8082   -0.4528 H   0  0  0  0  0  0  0  0  0  0  0  0
  1  2  2  0
  2  3  1  0
  3  4  1  0
  4  5  1  0
  5  6  1  0
  6  7  1  0
  7  8  1  0
  8  9  1  0
  9 10  1  0
 10 11  1  0
 11 12  1  0
  8  4  1  0
 11  7  1  0
  2 13  1  0
  4 14  1  1
  5 15  1  0
  5 16  1  0
  7 17  1  1
  8 18  1  6
 10 19  1  0
 10 20  1  0
 11 21  1  1
 12 22  1  0
M  END
$$$$

     RDKit          3D

 22 23  0  0  0  0  0  0  0  0999 V2000
    3.6373    0.9954    0.7501 O   0  0  0  0  0  0  0  0  0  0  0  0
    3.3601    1.2132   -0.4555 C   0  0  0  0  0  0  0  0  0  0  0  0
    2.1596    0.7342   -0.9762 O   0  0  0  0  0  0  0  0  0  0  0  0
    1.2993    0.0144   -0.1043 C   0  0  2  0  0  0  0  0  0  0  0  0
    1.0761   -1.4118   -0.6385 C   0  0  0  0  0  0  0  0  0  0  0  0
   -0.3263   -1.6102   -0.6469 O   0  0  0  0  0  0  0  0  0  0  0  0
   -0.7576   -0.8219    0.3505 C   0  0  1  0  0  0  0  0  0  0  0  0
   -0.0723    0.5052   -0.0695 C   0  0  1  0  0  0  0  0  0  0  0  0
   -0.5171    1.2781    0.9413 O   0  0  0  0  0  0  0  0  0  0  0  0
   -1.9200    1.1437    0.7641 C   0  0  0  0  0  0  0  0  0  0  0  0
   -2.1384   -0.3343    0.3916 C   0  0  1  0  0  0  0  0  0  0  0  0
   -2.8636   -0.4766   -0.7594 O   0  0  0  0  0  0  0  0  0  0  0  0
    4.0561    1.7650   -1.0597 H   0  0  0  0  0  0  0  0  0  0  0  0
    1.7169   -0.0676    0.8984 H   0  0  0  0  0  0  0  0  0  0  0  0
    1.4240   -1.4875   -1.6877 H   0  0  0  0  0  0  0  0  0  0  0  0
    1.5271   -2.1501    0.0294 H   0  0  0  0  0  0  0  0  0  0  0  0
   -0.3564   -1.1554    1.3245 H   0  0  0  0  0  0  0  0  0  0  0  0
   -0.5242    0.7577   -1.0417 H   0  0  0  0  0  0  0  0  0  0  0  0
   -2.4795    1.4350    1.6455 H   0  0  0  0  0  0  0  0  0  0  0  0
   -2.1520    1.7223   -0.1529 H   0  0  0  0  0  0  0  0  0  0  0  0
   -2.6940   -0.7785    1.2611 H   0  0  0  0  0  0  0  0  0  0  0  0
   -3.4552   -1.2703   -0.7641 H   0  0  0  0  0  0  0  0  0  0  0  0
  1  2  2  0
  2  3  1  0
  3  4  1  0
  4  5  1  0
  5  6  1  0
  6  7  1  0
  7  8  1  0
  8  9  1  0
  9 10  1  0
 10 11  1  0
 11 12  1  0
  8  4  1  0
 11  7  1  0
  2 13  1  0
  4 14  1  1
  5 15  1  0
  5 16  1  0
  7 17  1  1
  8 18  1  6
 10 19  1  0
 10 20  1  0
 11 21  1  1
 12 22  1  0
M  END
$$$$

     RDKit          3D

 22 23  0  0  0  0  0  0  0  0999 V2000
    3.6137   -1.1529    0.3055 O   0  0  0  0  0  0  0  0  0  0  0  0
    3.3082   -0.1845    1.0515 C   0  0  0  0  0  0  0  0  0  0  0  0
    2.1047    0.4316    0.8450 O   0  0  0  0  0  0  0  0  0  0  0  0
    1.2296   -0.0043   -0.1744 C   0  0  2  0  0  0  0  0  0  0  0  0
    0.9364    1.1505   -1.1510 C   0  0  0  0  0  0  0  0  0  0  0  0
   -0.4528    1.4023   -1.0280 O   0  0  0  0  0  0  0  0  0  0  0  0
   -0.9583    0.1648   -0.8465 C   0  0  1  0  0  0  0  0  0  0  0  0
   -0.0971   -0.2409    0.3799 C   0  0  1  0  0  0  0  0  0  0  0  0
   -0.5748   -1.4764    0.5799 O   0  0  0  0  0  0  0  0  0  0  0  0
   -1.9876   -1.3603    0.5189 C   0  0  0  0  0  0  0  0  0  0  0  0
   -2.2533   -0.0016   -0.1558 C   0  0  1  0  0  0  0  0  0  0  0  0
   -2.3278    0.9536    0.8681 O   0  0  0  0  0  0  0  0  0  0  0  0
    3.9863    0.1553    1.8434 H   0  0  0  0  0  0  0  0  0  0  0  0
    1.6873   -0.8604   -0.7074 H   0  0  0  0  0  0  0  0  0  0  0  0
    1.1616    0.7792   -2.1753 H   0  0  0  0  0  0  0  0  0  0  0  0
    1.5102    2.0331   -0.8581 H   0  0  0  0  0  0  0  0  0  0  0  0
   -0.7491   -0.5627   -1.6465 H   0  0  0  0  0  0  0  0  0  0  0  0
   -0.3349    0.5110    1.1536 H   0  0  0  0  0  0  0  0  0  0  0  0
   -2.4357   -1.3546    1.5162 H   0  0  0  0  0  0  0  0  0  0  0  0
   -2.3840   -2.1505   -0.1551 H   0  0  0  0  0  0  0  0  0  0  0  0
   -3.1398   -0.0282   -0.7841 H   0  0  0  0  0  0  0  0  0  0  0  0
   -1.8428    1.7959    0.6202 H   0  0  0  0  0  0  0  0  0  0  0  0
  1  2  2  0
  2  3  1  0
  3  4  1  0
  4  5  1  0
  5  6  1  0
  6  7  1  0
  7  8  1  0
  8  9  1  0
  9 10  1  0
 10 11  1  0
 11 12  1  0
  8  4  1  0
 11  7  1  0
  2 13  1  0
  4 14  1  6
  5 15  1  0
  5 16  1  0
  7 17  1  6
  8 18  1  1
 10 19  1  0
 10 20  1  0
 11 21  1  6
 12 22  1  0
M  END
$$$$

     RDKit          3D

 22 23  0  0  0  0  0  0  0  0999 V2000
    3.5562   -0.9487   -0.6826 O   0  0  0  0  0  0  0  0  0  0  0  0
    3.4506   -0.7024    0.5424 C   0  0  0  0  0  0  0  0  0  0  0  0
    2.2886   -0.1012    0.9912 O   0  0  0  0  0  0  0  0  0  0  0  0
    1.2918    0.2029    0.0690 C   0  0  2  0  0  0  0  0  0  0  0  0
    0.9780    1.7069    0.0424 C   0  0  0  0  0  0  0  0  0  0  0  0
   -0.4357    1.8077    0.0596 O   0  0  0  0  0  0  0  0  0  0  0  0
   -0.8328    0.6670   -0.4962 C   0  0  1  0  0  0  0  0  0  0  0  0
   -0.0446   -0.3491    0.3684 C   0  0  1  0  0  0  0  0  0  0  0  0
   -0.4457   -1.4848   -0.2476 O   0  0  0  0  0  0  0  0  0  0  0  0
   -1.8575   -1.3865   -0.3129 C   0  0  0  0  0  0  0  0  0  0  0  0
   -2.1667    0.1219   -0.3358 C   0  0  1  0  0  0  0  0  0  0  0  0
   -2.8443    0.5003    0.7951 O   0  0  0  0  0  0  0  0  0  0  0  0
    4.2776   -0.9736    1.1903 H   0  0  0  0  0  0  0  0  0  0  0  0
    1.5718   -0.0929   -0.9722 H   0  0  0  0  0  0  0  0  0  0  0  0
    1.2897    2.1477   -0.9167 H   0  0  0  0  0  0  0  0  0  0  0  0
    1.4413    2.2309    0.8783 H   0  0  0  0  0  0  0  0  0  0  0  0
   -0.4504    0.5195   -1.5195 H   0  0  0  0  0  0  0  0  0  0  0  0
   -0.3439   -0.2495    1.4266 H   0  0  0  0  0  0  0  0  0  0  0  0
   -2.1429   -1.8208   -1.3144 H   0  0  0  0  0  0  0  0  0  0  0  0
   -2.3485   -1.8793    0.5242 H   0  0  0  0  0  0  0  0  0  0  0  0
   -2.7929    0.3532   -1.2420 H   0  0  0  0  0  0  0  0  0  0  0  0
   -3.4395   -0.2693    1.0649 H   0  0  0  0  0  0  0  0  0  0  0  0
  1  2  2  0
  2  3  1  0
  3  4  1  0
  4  5  1  0
  5  6  1  0
  6  7  1  0
  7  8  1  0
  8  9  1  0
  9 10  1  0
 10 11  1  0
 11 12  1  0
  8  4  1  0
 11  7  1  0
  2 13  1  0
  4 14  1  6
  5 15  1  0
  5 16  1  0
  7 17  1  6
  8 18  1  1
 10 19  1  0
 10 20  1  0
 11 21  1  6
 12 22  1  0
M  END
$$$$
