
     RDKit          3D

 21 21  0  0  0  0  0  0  0  0999 V2000
    1.3189   -1.3645   -0.8513 N   0  0  0  0  0  0  0  0  0  0  0  0
    1.0347   -0.6943    0.3777 C   0  0  1  0  0  0  0  0  0  0  0  0
    2.0669    0.3196    0.7269 C   0  0  0  0  0  0  0  0  0  0  0  0
    1.9386    0.9840    1.7866 O   0  0  0  0  0  0  0  0  0  0  0  0
    3.1759    0.5719   -0.0659 O   0  0  0  0  0  0  0  0  0  0  0  0
   -0.3108   -0.0211    0.4131 C   0  0  1  0  0  0  0  0  0  0  0  0
   -0.4661    1.0281   -0.6548 C   0  0  0  0  0  0  0  0  0  0  0  0
   -1.8122    1.6140   -0.5429 C   0  0  0  0  0  0  0  0  0  0  0  0
   -2.7996    0.9541   -0.0895 N   0  0  0  0  0  0  0  0  0  0  0  0
   -2.7406   -0.3763    0.3524 N   0  0  0  0  0  0  0  0  0  0  0  0
   -1.4300   -0.9801    0.2607 C   0  0  0  0  0  0  0  0  0  0  0  0
   -1.3119   -2.1988    0.0705 O   0  0  0  0  0  0  0  0  0  0  0  0
    1.6070   -2.3490   -0.7392 H   0  0  0  0  0  0  0  0  0  0  0  0
    0.5950   -1.2605   -1.5842 H   0  0  0  0  0  0  0  0  0  0  0  0
    1.0455   -1.4441    1.1960 H   0  0  0  0  0  0  0  0  0  0  0  0
    4.0902    0.6833    0.3744 H   0  0  0  0  0  0  0  0  0  0  0  0
   -0.4084    0.4529    1.4028 H   0  0  0  0  0  0  0  0  0  0  0  0
   -0.4344    0.5513   -1.6811 H   0  0  0  0  0  0  0  0  0  0  0  0
    0.3381    1.7930   -0.6025 H   0  0  0  0  0  0  0  0  0  0  0  0
   -1.9382    2.6401   -0.8634 H   0  0  0  0  0  0  0  0  0  0  0  0
   -3.5587   -0.9035    0.7138 H   0  0  0  0  0  0  0  0  0  0  0  0
  1  2  1  0
  2  3  1  0
  3  4  2  0
  3  5  1  0
  2  6  1  0
  6  7  1  0
  7  8  1  0
  8  9  2  0
  9 10  1  0
 10 11  1  0
 11 12  2  0
 11  6  1  0
  1 13  1  0
  1 14  1  0
  2 15  1  1
  5 16  1  0
  6 17  1  1
  7 18  1  0
  7 19  1  0
  8 20  1  0
 10 21  1  0
M  END
$$$$

     RDKit          3D

 21 21  0  0  0  0  0  0  0  0999 V2000
    1.4148   -0.3070   -1.9204 N   0  0  0  0  0  0  0  0  0  0  0  0
    0.9519   -0.7729   -0.6086 C   0  0  1  0  0  0  0  0  0  0  0  0
    1.9989   -0.5914    0.3714 C   0  0  0  0  0  0  0  0  0  0  0  0
    3.0851   -0.0534   -0.0048 O   0  0  0  0  0  0  0  0  0  0  0  0
    1.9676   -0.9402    1.7072 O   0  0  0  0  0  0  0  0  0  0  0  0
   -0.3748   -0.1783   -0.3608 C   0  0  1  0  0  0  0  0  0  0  0  0
   -1.0239   -0.5450    0.9501 C   0  0  0  0  0  0  0  0  0  0  0  0
   -2.2340    0.2312    1.2579 C   0  0  0  0  0  0  0  0  0  0  0  0
   -2.4979    1.3460    0.7308 N   0  0  0  0  0  0  0  0  0  0  0  0
   -1.6572    1.9448   -0.1993 N   0  0  0  0  0  0  0  0  0  0  0  0
   -0.4680    1.2716   -0.5603 C   0  0  0  0  0  0  0  0  0  0  0  0
    0.4801    1.9091   -1.0395 O   0  0  0  0  0  0  0  0  0  0  0  0
    2.0442   -1.0402   -2.3370 H   0  0  0  0  0  0  0  0  0  0  0  0
    0.6192   -0.0631   -2.5443 H   0  0  0  0  0  0  0  0  0  0  0  0
    0.8055   -1.8845   -0.7498 H   0  0  0  0  0  0  0  0  0  0  0  0
    2.4248   -0.3135    2.3574 H   0  0  0  0  0  0  0  0  0  0  0  0
   -1.0627   -0.6240   -1.1464 H   0  0  0  0  0  0  0  0  0  0  0  0
   -1.3402   -1.6314    0.9487 H   0  0  0  0  0  0  0  0  0  0  0  0
   -0.2915   -0.4753    1.8025 H   0  0  0  0  0  0  0  0  0  0  0  0
   -2.9335   -0.1765    1.9749 H   0  0  0  0  0  0  0  0  0  0  0  0
   -1.9086    2.8942   -0.6298 H   0  0  0  0  0  0  0  0  0  0  0  0
  1  2  1  0
  2  3  1  0
  3  4  2  0
  3  5  1  0
  2  6  1  0
  6  7  1  0
  7  8  1  0
  8  9  2  0
  9 10  1  0
 10 11  1  0
 11 12  2  0
 11  6  1  0
  1 13  1  0
  1 14  1  0
  2 15  1  6
  5 16  1  0
  6 17  1  6
  7 18  1  0
  7 19  1  0
  8 20  1  0
 10 21  1  0
M  END
$$$$

     RDKit          3D

 21 21  0  0  0  0  0  0  0  0999 V2000
   -1.7637   -0.7839    1.3605 N   0  0  0  0  0  0  0  0  0  0  0  0
   -1.2396   -0.7310    0.0203 C   0  0  1  0  0  0  0  0  0  0  0  0
   -1.9930    0.2533   -0.7507 C   0  0  0  0  0  0  0  0  0  0  0  0
   -2.9102    0.8918   -0.1916 O   0  0  0  0  0  0  0  0  0  0  0  0
   -1.7497    0.5260   -2.0839 O   0  0  0  0  0  0  0  0  0  0  0  0
    0.2400   -0.4863    0.1090 C   0  0  1  0  0  0  0  0  0  0  0  0
    0.9542   -0.4022   -1.1866 C   0  0  0  0  0  0  0  0  0  0  0  0
    2.3796   -0.1008   -0.9940 C   0  0  0  0  0  0  0  0  0  0  0  0
    2.8109    0.5038    0.0366 N   0  0  0  0  0  0  0  0  0  0  0  0
    1.9976    0.9351    1.0755 N   0  0  0  0  0  0  0  0  0  0  0  0
    0.5812    0.6759    0.9749 C   0  0  0  0  0  0  0  0  0  0  0  0
   -0.3006    1.3392    1.5437 O   0  0  0  0  0  0  0  0  0  0  0  0
   -2.2877    0.0695    1.5833 H   0  0  0  0  0  0  0  0  0  0  0  0
   -1.1055   -1.1160    2.0710 H   0  0  0  0  0  0  0  0  0  0  0  0
   -1.3575   -1.7169   -0.5000 H   0  0  0  0  0  0  0  0  0  0  0  0
   -1.8023    1.4756   -2.4595 H   0  0  0  0  0  0  0  0  0  0  0  0
    0.6544   -1.3896    0.6480 H   0  0  0  0  0  0  0  0  0  0  0  0
    0.5599    0.4084   -1.8549 H   0  0  0  0  0  0  0  0  0  0  0  0
    0.9059   -1.3633   -1.7467 H   0  0  0  0  0  0  0  0  0  0  0  0
    3.1004   -0.4231   -1.7971 H   0  0  0  0  0  0  0  0  0  0  0  0
    2.3259    1.4344    1.9229 H   0  0  0  0  0  0  0  0  0  0  0  0
  1  2  1  0
  2  3  1  0
  3  4  2  0
  3  5  1  0
  2  6  1  0
  6  7  1  0
  7  8  1  0
  8  9  2  0
  9 10  1  0
 10 11  1  0
 11 12  2  0
 11  6  1  0
  1 13  1  0
  1 14  1  0
  2 15  1  6
  5 16  1  0
  6 17  1  1
  7 18  1  0
  7 19  1  0
  8 20  1  0
 10 21  1  0
M  END
$$$$

     RDKit          3D

 21 21  0  0  0  0  0  0  0  0999 V2000
    1.3167    1.1219    0.9113 N   0  0  0  0  0  0  0  0  0  0  0  0
    1.1159    0.5273   -0.3903 C   0  0  1  0  0  0  0  0  0  0  0  0
    2.0520   -0.6247   -0.5769 C   0  0  0  0  0  0  0  0  0  0  0  0
    2.0557   -1.2960   -1.6402 O   0  0  0  0  0  0  0  0  0  0  0  0
    2.9362   -0.9564    0.4523 O   0  0  0  0  0  0  0  0  0  0  0  0
   -0.3219    0.0908   -0.5826 C   0  0  1  0  0  0  0  0  0  0  0  0
   -0.7430   -0.9243    0.4360 C   0  0  0  0  0  0  0  0  0  0  0  0
   -2.2086   -1.0547    0.5470 C   0  0  0  0  0  0  0  0  0  0  0  0
   -2.9911   -0.1300    0.1647 N   0  0  0  0  0  0  0  0  0  0  0  0
   -2.5967    1.0727   -0.3849 N   0  0  0  0  0  0  0  0  0  0  0  0
   -1.1954    1.2880   -0.5343 C   0  0  0  0  0  0  0  0  0  0  0  0
   -0.7165    2.4246   -0.6213 O   0  0  0  0  0  0  0  0  0  0  0  0
    1.5863    0.3634    1.5653 H   0  0  0  0  0  0  0  0  0  0  0  0
    2.0877    1.8258    0.8902 H   0  0  0  0  0  0  0  0  0  0  0  0
    1.3317    1.3036   -1.1514 H   0  0  0  0  0  0  0  0  0  0  0  0
    3.2577   -1.9237    0.5084 H   0  0  0  0  0  0  0  0  0  0  0  0
   -0.3972   -0.3859   -1.5850 H   0  0  0  0  0  0  0  0  0  0  0  0
   -0.2791   -1.9296    0.2338 H   0  0  0  0  0  0  0  0  0  0  0  0
   -0.3946   -0.6108    1.4662 H   0  0  0  0  0  0  0  0  0  0  0  0
   -2.6057   -1.9955    0.9791 H   0  0  0  0  0  0  0  0  0  0  0  0
   -3.2901    1.8135   -0.6874 H   0  0  0  0  0  0  0  0  0  0  0  0
  1  2  1  0
  2  3  1  0
  3  4  2  0
  3  5  1  0
  2  6  1  0
  6  7  1  0
  7  8  1  0
  8  9  2  0
  9 10  1  0
 10 11  1  0
 11 12  2  0
 11  6  1  0
  1 13  1  0
  1 14  1  0
  2 15  1  6
  5 16  1  0
  6 17  1  6
  7 18  1  0
  7 19  1  0
  8 20  1  0
 10 21  1  0
M  END
$$$$

     RDKit          3D

 21 21  0  0  0  0  0  0  0  0999 V2000
   -1.6041    1.8101    0.1699 N   0  0  0  0  0  0  0  0  0  0  0  0
   -1.1677    0.4516    0.5080 C   0  0  1  0  0  0  0  0  0  0  0  0
   -1.9332   -0.5486   -0.2570 C   0  0  0  0  0  0  0  0  0  0  0  0
   -2.7466   -0.1437   -1.1256 O   0  0  0  0  0  0  0  0  0  0  0  0
   -1.8206   -1.9115   -0.0850 O   0  0  0  0  0  0  0  0  0  0  0  0
    0.3046    0.3614    0.3276 C   0  0  1  0  0  0  0  0  0  0  0  0
    0.8982   -0.9702    0.6425 C   0  0  0  0  0  0  0  0  0  0  0  0
    2.3697   -0.9935    0.3154 C   0  0  0  0  0  0  0  0  0  0  0  0
    2.9052   -0.2260   -0.5525 N   0  0  0  0  0  0  0  0  0  0  0  0
    2.1636    0.7018   -1.2715 N   0  0  0  0  0  0  0  0  0  0  0  0
    0.7635    0.7927   -1.0257 C   0  0  0  0  0  0  0  0  0  0  0  0
    0.0130    1.2138   -1.9212 O   0  0  0  0  0  0  0  0  0  0  0  0
   -2.4265    2.0586    0.7631 H   0  0  0  0  0  0  0  0  0  0  0  0
   -1.9865    1.7966   -0.8220 H   0  0  0  0  0  0  0  0  0  0  0  0
   -1.3994    0.3332    1.5882 H   0  0  0  0  0  0  0  0  0  0  0  0
   -1.9395   -2.4924   -0.9244 H   0  0  0  0  0  0  0  0  0  0  0  0
    0.7497    1.1203    1.0431 H   0  0  0  0  0  0  0  0  0  0  0  0
    0.8300   -1.1289    1.7514 H   0  0  0  0  0  0  0  0  0  0  0  0
    0.4384   -1.8319    0.1632 H   0  0  0  0  0  0  0  0  0  0  0  0
    2.9626   -1.7310    0.8849 H   0  0  0  0  0  0  0  0  0  0  0  0
    2.6255    1.3374   -1.9952 H   0  0  0  0  0  0  0  0  0  0  0  0
  1  2  1  0
  2  3  1  0
  3  4  2  0
  3  5  1  0
  2  6  1  0
  6  7  1  0
  7  8  1  0
  8  9  2  0
  9 10  1  0
 10 11  1  0
 11 12  2  0
 11  6  1  0
  1 13  1  0
  1 14  1  0
  2 15  1  1
  5 16  1  0
  6 17  1  1
  7 18  1  0
  7 19  1  0
  8 20  1  0
 10 21  1  0
M  END
$$$$

     RDKit          3D

 21 21  0  0  0  0  0  0  0  0999 V2000
   -1.1321   -0.5856    1.6552 N   0  0  0  0  0  0  0  0  0  0  0  0
   -1.0844   -0.7858    0.2244 C   0  0  1  0  0  0  0  0  0  0  0  0
   -2.1453   -0.0095   -0.4554 C   0  0  0  0  0  0  0  0  0  0  0  0
   -2.9327    0.6980    0.2017 O   0  0  0  0  0  0  0  0  0  0  0  0
   -2.2688   -0.0658   -1.8304 O   0  0  0  0  0  0  0  0  0  0  0  0
    0.2596   -0.3152   -0.2972 C   0  0  1  0  0  0  0  0  0  0  0  0
    0.4641    1.1420    0.0010 C   0  0  0  0  0  0  0  0  0  0  0  0
    1.8220    1.5675   -0.3573 C   0  0  0  0  0  0  0  0  0  0  0  0
    2.8019    0.7704   -0.3861 N   0  0  0  0  0  0  0  0  0  0  0  0
    2.6883   -0.5973   -0.0818 N   0  0  0  0  0  0  0  0  0  0  0  0
    1.3772   -1.0888    0.2748 C   0  0  0  0  0  0  0  0  0  0  0  0
    1.2060   -2.0753    0.9986 O   0  0  0  0  0  0  0  0  0  0  0  0
   -1.9700   -0.0449    1.8958 H   0  0  0  0  0  0  0  0  0  0  0  0
   -1.0953   -1.5191    2.1286 H   0  0  0  0  0  0  0  0  0  0  0  0
   -1.2288   -1.8481   -0.0234 H   0  0  0  0  0  0  0  0  0  0  0  0
   -2.5763    0.7412   -2.3597 H   0  0  0  0  0  0  0  0  0  0  0  0
    0.2880   -0.4512   -1.4058 H   0  0  0  0  0  0  0  0  0  0  0  0
    0.2855    1.3281    1.0881 H   0  0  0  0  0  0  0  0  0  0  0  0
   -0.2903    1.7742   -0.5512 H   0  0  0  0  0  0  0  0  0  0  0  0
    2.0380    2.6139   -0.6177 H   0  0  0  0  0  0  0  0  0  0  0  0
    3.4935   -1.2488   -0.1021 H   0  0  0  0  0  0  0  0  0  0  0  0
  1  2  1  0
  2  3  1  0
  3  4  2  0
  3  5  1  0
  2  6  1  0
  6  7  1  0
  7  8  1  0
  8  9  2  0
  9 10  1  0
 10 11  1  0
 11 12  2  0
 11  6  1  0
  1 13  1  0
  1 14  1  0
  2 15  1  1
  5 16  1  0
  6 17  1  6
  7 18  1  0
  7 19  1  0
  8 20  1  0
 10 21  1  0
M  END
$$$$

     RDKit          3D

 21 21  0  0  0  0  0  0  0  0999 V2000
   -1.5554    1.8507   -0.1165 N   0  0  0  0  0  0  0  0  0  0  0  0
   -1.1819    0.5138    0.2902 C   0  0  1  0  0  0  0  0  0  0  0  0
   -1.4475   -0.4419   -0.7944 C   0  0  0  0  0  0  0  0  0  0  0  0
   -1.9326   -0.0330   -1.8779 O   0  0  0  0  0  0  0  0  0  0  0  0
   -1.1833   -1.7977   -0.6764 O   0  0  0  0  0  0  0  0  0  0  0  0
    0.2830    0.5100    0.7227 C   0  0  1  0  0  0  0  0  0  0  0  0
    0.6934   -0.8678    1.1503 C   0  0  0  0  0  0  0  0  0  0  0  0
    1.5418   -1.5683    0.1744 C   0  0  0  0  0  0  0  0  0  0  0  0
    2.1022   -1.0695   -0.8540 N   0  0  0  0  0  0  0  0  0  0  0  0
    1.9565    0.2992   -1.1851 N   0  0  0  0  0  0  0  0  0  0  0  0
    1.1536    1.0829   -0.3103 C   0  0  0  0  0  0  0  0  0  0  0  0
    1.1994    2.3295   -0.4370 O   0  0  0  0  0  0  0  0  0  0  0  0
   -1.0703    2.5270    0.5219 H   0  0  0  0  0  0  0  0  0  0  0  0
   -2.5750    1.9854   -0.1642 H   0  0  0  0  0  0  0  0  0  0  0  0
   -1.7666    0.2689    1.2114 H   0  0  0  0  0  0  0  0  0  0  0  0
   -1.7751   -2.5024   -1.1082 H   0  0  0  0  0  0  0  0  0  0  0  0
    0.3309    1.1758    1.6089 H   0  0  0  0  0  0  0  0  0  0  0  0
    1.2774   -0.8016    2.1153 H   0  0  0  0  0  0  0  0  0  0  0  0
   -0.1953   -1.4900    1.4169 H   0  0  0  0  0  0  0  0  0  0  0  0
    1.7152   -2.6412    0.3455 H   0  0  0  0  0  0  0  0  0  0  0  0
    2.4298    0.6702   -2.0333 H   0  0  0  0  0  0  0  0  0  0  0  0
  1  2  1  0
  2  3  1  0
  3  4  2  0
  3  5  1  0
  2  6  1  0
  6  7  1  0
  7  8  1  0
  8  9  2  0
  9 10  1  0
 10 11  1  0
 11 12  2  0
 11  6  1  0
  1 13  1  0
  1 14  1  0
  2 15  1  1
  5 16  1  0
  6 17  1  1
  7 18  1  0
  7 19  1  0
  8 20  1  0
 10 21  1  0
M  END
$$$$

     RDKit          3D

 21 21  0  0  0  0  0  0  0  0999 V2000
   -1.6185   -1.5646    0.2114 N   0  0  0  0  0  0  0  0  0  0  0  0
   -0.9145   -0.3806   -0.2483 C   0  0  1  0  0  0  0  0  0  0  0  0
   -1.8967    0.6593   -0.5601 C   0  0  0  0  0  0  0  0  0  0  0  0
   -3.1204    0.4496   -0.3787 O   0  0  0  0  0  0  0  0  0  0  0  0
   -1.5465    1.9178   -1.0662 O   0  0  0  0  0  0  0  0  0  0  0  0
    0.1001    0.0879    0.7717 C   0  0  1  0  0  0  0  0  0  0  0  0
    1.1141   -1.0186    1.0134 C   0  0  0  0  0  0  0  0  0  0  0  0
    2.2004   -1.0057    0.0249 C   0  0  0  0  0  0  0  0  0  0  0  0
    2.5226   -0.0240   -0.7248 N   0  0  0  0  0  0  0  0  0  0  0  0
    1.8433    1.2151   -0.6892 N   0  0  0  0  0  0  0  0  0  0  0  0
    0.7643    1.3063    0.2438 C   0  0  0  0  0  0  0  0  0  0  0  0
    0.3962    2.4433    0.6033 O   0  0  0  0  0  0  0  0  0  0  0  0
   -1.3828   -1.8245    1.1896 H   0  0  0  0  0  0  0  0  0  0  0  0
   -2.6542   -1.4513    0.1571 H   0  0  0  0  0  0  0  0  0  0  0  0
   -0.3566   -0.6529   -1.1729 H   0  0  0  0  0  0  0  0  0  0  0  0
   -2.1447    2.4108   -1.7143 H   0  0  0  0  0  0  0  0  0  0  0  0
   -0.4395    0.2933    1.7149 H   0  0  0  0  0  0  0  0  0  0  0  0
    1.5606   -0.9055    2.0281 H   0  0  0  0  0  0  0  0  0  0  0  0
    0.6370   -2.0196    0.9803 H   0  0  0  0  0  0  0  0  0  0  0  0
    2.7958   -1.9144   -0.0893 H   0  0  0  0  0  0  0  0  0  0  0  0
    2.1399    1.9784   -1.3138 H   0  0  0  0  0  0  0  0  0  0  0  0
  1  2  1  0
  2  3  1  0
  3  4  2  0
  3  5  1  0
  2  6  1  0
  6  7  1  0
  7  8  1  0
  8  9  2  0
  9 10  1  0
 10 11  1  0
 11 12  2  0
 11  6  1  0
  1 13  1  0
  1 14  1  0
  2 15  1  6
  5 16  1  0
  6 17  1  1
  7 18  1  0
  7 19  1  0
  8 20  1  0
 10 21  1  0
M  END
$$$$
