
     RDKit          3D

 19 20  0  0  0  0  0  0  0  0999 V2000
    2.2511   -1.0387    0.2865 O   0  0  0  0  0  0  0  0  0  0  0  0
    1.9003    0.1451    0.0923 C   0  0  0  0  0  0  0  0  0  0  0  0
    2.6144    1.1386    0.7385 O   0  0  0  0  0  0  0  0  0  0  0  0
    0.7698    0.4262   -0.7941 C   0  0  2  0  0  0  0  0  0  0  0  0
   -0.2701    1.3149   -0.2147 C   0  0  0  0  0  0  0  0  0  0  0  0
   -1.3548    0.6361    0.4344 N   0  0  0  0  0  0  0  0  0  0  0  0
   -2.3496    1.0943    1.1428 N   0  0  0  0  0  0  0  0  0  0  0  0
   -3.1190    0.0955    1.5470 N   0  0  0  0  0  0  0  0  0  0  0  0
   -2.5855   -1.0146    1.0755 N   0  0  0  0  0  0  0  0  0  0  0  0
   -1.4770   -0.6739    0.3765 C   0  0  0  0  0  0  0  0  0  0  0  0
   -0.5175   -1.5226   -0.3478 C   0  0  0  0  0  0  0  0  0  0  0  0
    0.1890   -0.7614   -1.3232 N   0  0  0  0  0  0  0  0  0  0  0  0
    3.2753    0.8874    1.4704 H   0  0  0  0  0  0  0  0  0  0  0  0
    1.2216    1.0108   -1.6654 H   0  0  0  0  0  0  0  0  0  0  0  0
    0.1410    2.1028    0.4564 H   0  0  0  0  0  0  0  0  0  0  0  0
   -0.7326    1.8909   -1.0719 H   0  0  0  0  0  0  0  0  0  0  0  0
    0.1677   -2.0190    0.3879 H   0  0  0  0  0  0  0  0  0  0  0  0
   -1.0799   -2.3594   -0.8599 H   0  0  0  0  0  0  0  0  0  0  0  0
    0.9560   -1.3533   -1.7313 H   0  0  0  0  0  0  0  0  0  0  0  0
  1  2  2  0
  2  3  1  0
  2  4  1  0
  4  5  1  0
  5  6  1  0
  6  7  1  0
  7  8  2  0
  8  9  1  0
  9 10  2  0
 10 11  1  0
 11 12  1  0
 12  4  1  0
 10  6  1  0
  3 13  1  0
  4 14  1  6
  5 15  1  0
  5 16  1  0
 11 17  1  0
 11 18  1  0
 12 19  1  0
M  END
$$$$

     RDKit          3D

 19 20  0  0  0  0  0  0  0  0999 V2000
    1.9247    0.2935    1.9240 O   0  0  0  0  0  0  0  0  0  0  0  0
    1.9404    0.2824    0.6732 C   0  0  0  0  0  0  0  0  0  0  0  0
    2.8570    1.0531   -0.0145 O   0  0  0  0  0  0  0  0  0  0  0  0
    0.9627   -0.5682   -0.0510 C   0  0  2  0  0  0  0  0  0  0  0  0
    0.2353    0.3076   -1.0321 C   0  0  0  0  0  0  0  0  0  0  0  0
   -1.0196    0.8164   -0.5160 N   0  0  0  0  0  0  0  0  0  0  0  0
   -1.6618    1.9601   -0.5283 N   0  0  0  0  0  0  0  0  0  0  0  0
   -2.7957    1.7894    0.1344 N   0  0  0  0  0  0  0  0  0  0  0  0
   -2.8829    0.5331    0.5739 N   0  0  0  0  0  0  0  0  0  0  0  0
   -1.7780   -0.0755    0.1704 C   0  0  0  0  0  0  0  0  0  0  0  0
   -1.1912   -1.4438    0.2836 C   0  0  0  0  0  0  0  0  0  0  0  0
    0.1216   -1.2698    0.8659 N   0  0  0  0  0  0  0  0  0  0  0  0
    3.6355    1.5351    0.4246 H   0  0  0  0  0  0  0  0  0  0  0  0
    1.5614   -1.3574   -0.5962 H   0  0  0  0  0  0  0  0  0  0  0  0
   -0.0282   -0.3144   -1.9293 H   0  0  0  0  0  0  0  0  0  0  0  0
    0.8529    1.1763   -1.3608 H   0  0  0  0  0  0  0  0  0  0  0  0
   -1.8067   -2.1306    0.8686 H   0  0  0  0  0  0  0  0  0  0  0  0
   -1.0123   -1.8137   -0.7661 H   0  0  0  0  0  0  0  0  0  0  0  0
    0.0850   -0.7735    1.7847 H   0  0  0  0  0  0  0  0  0  0  0  0
  1  2  2  0
  2  3  1  0
  2  4  1  0
  4  5  1  0
  5  6  1  0
  6  7  1  0
  7  8  2  0
  8  9  1  0
  9 10  2  0
 10 11  1  0
 11 12  1  0
 12  4  1  0
 10  6  1  0
  3 13  1  0
  4 14  1  6
  5 15  1  0
  5 16  1  0
 11 17  1  0
 11 18  1  0
 12 19  1  0
M  END
$$$$

     RDKit          3D

 19 20  0  0  0  0  0  0  0  0999 V2000
    2.6580    0.8872   -0.7594 O   0  0  0  0  0  0  0  0  0  0  0  0
    2.1509   -0.0667   -0.1165 C   0  0  0  0  0  0  0  0  0  0  0  0
    2.8580   -1.2502   -0.0347 O   0  0  0  0  0  0  0  0  0  0  0  0
    0.8275    0.0493    0.5476 C   0  0  2  0  0  0  0  0  0  0  0  0
   -0.0318   -1.0730    0.0393 C   0  0  0  0  0  0  0  0  0  0  0  0
   -1.4391   -0.8167    0.1120 N   0  0  0  0  0  0  0  0  0  0  0  0
   -2.4862   -1.5409    0.4532 N   0  0  0  0  0  0  0  0  0  0  0  0
   -3.5383   -0.7801    0.3285 N   0  0  0  0  0  0  0  0  0  0  0  0
   -3.1846    0.4393   -0.0928 N   0  0  0  0  0  0  0  0  0  0  0  0
   -1.8608    0.4256   -0.2324 C   0  0  0  0  0  0  0  0  0  0  0  0
   -0.7928    1.3779   -0.6473 C   0  0  0  0  0  0  0  0  0  0  0  0
    0.2279    1.3354    0.3683 N   0  0  0  0  0  0  0  0  0  0  0  0
    3.8845   -1.2440    0.0386 H   0  0  0  0  0  0  0  0  0  0  0  0
    0.9416   -0.1203    1.6548 H   0  0  0  0  0  0  0  0  0  0  0  0
    0.2277   -1.2350   -1.0271 H   0  0  0  0  0  0  0  0  0  0  0  0
    0.2267   -2.0365    0.5532 H   0  0  0  0  0  0  0  0  0  0  0  0
   -0.4020    1.1109   -1.6597 H   0  0  0  0  0  0  0  0  0  0  0  0
   -1.1670    2.4270   -0.6829 H   0  0  0  0  0  0  0  0  0  0  0  0
    0.8997    2.1106    0.3331 H   0  0  0  0  0  0  0  0  0  0  0  0
  1  2  2  0
  2  3  1  0
  2  4  1  0
  4  5  1  0
  5  6  1  0
  6  7  1  0
  7  8  2  0
  8  9  1  0
  9 10  2  0
 10 11  1  0
 11 12  1  0
 12  4  1  0
 10  6  1  0
  3 13  1  0
  4 14  1  1
  5 15  1  0
  5 16  1  0
 11 17  1  0
 11 18  1  0
 12 19  1  0
M  END
$$$$

     RDKit          3D

 19 20  0  0  0  0  0  0  0  0999 V2000
    3.0614    0.8356   -0.4062 O   0  0  0  0  0  0  0  0  0  0  0  0
    2.2920    0.0077    0.1348 C   0  0  0  0  0  0  0  0  0  0  0  0
    2.8574   -1.1543    0.6431 O   0  0  0  0  0  0  0  0  0  0  0  0
    0.8355    0.1756    0.2709 C   0  0  2  0  0  0  0  0  0  0  0  0
    0.1787   -1.0215   -0.4039 C   0  0  0  0  0  0  0  0  0  0  0  0
   -1.2497   -0.8512   -0.2482 N   0  0  0  0  0  0  0  0  0  0  0  0
   -2.2071   -1.7538   -0.3571 N   0  0  0  0  0  0  0  0  0  0  0  0
   -3.3738   -1.1351   -0.1295 N   0  0  0  0  0  0  0  0  0  0  0  0
   -3.1339    0.1260    0.1148 N   0  0  0  0  0  0  0  0  0  0  0  0
   -1.8066    0.3247    0.0450 C   0  0  0  0  0  0  0  0  0  0  0  0
   -1.0269    1.5775    0.2422 C   0  0  0  0  0  0  0  0  0  0  0  0
    0.3379    1.3974   -0.2785 N   0  0  0  0  0  0  0  0  0  0  0  0
    3.8325   -1.3263    0.7395 H   0  0  0  0  0  0  0  0  0  0  0  0
    0.5683    0.1496    1.3485 H   0  0  0  0  0  0  0  0  0  0  0  0
    0.5220   -1.9435    0.0771 H   0  0  0  0  0  0  0  0  0  0  0  0
    0.4010   -1.0345   -1.4720 H   0  0  0  0  0  0  0  0  0  0  0  0
   -1.4835    2.3796   -0.3358 H   0  0  0  0  0  0  0  0  0  0  0  0
   -0.9266    1.8224    1.3268 H   0  0  0  0  0  0  0  0  0  0  0  0
    0.3215    1.4241   -1.3117 H   0  0  0  0  0  0  0  0  0  0  0  0
  1  2  2  0
  2  3  1  0
  2  4  1  0
  4  5  1  0
  5  6  1  0
  6  7  1  0
  7  8  2  0
  8  9  1  0
  9 10  2  0
 10 11  1  0
 11 12  1  0
 12  4  1  0
 10  6  1  0
  3 13  1  0
  4 14  1  1
  5 15  1  0
  5 16  1  0
 11 17  1  0
 11 18  1  0
 12 19  1  0
M  END
$$$$

     RDKit          3D

 19 20  0  0  0  0  0  0  0  0999 V2000
    2.7942    1.2813   -0.6300 O   0  0  0  0  0  0  0  0  0  0  0  0
    2.3049    0.3031   -0.0137 C   0  0  0  0  0  0  0  0  0  0  0  0
    3.1284   -0.6714    0.4818 O   0  0  0  0  0  0  0  0  0  0  0  0
    0.8506    0.2255    0.1629 C   0  0  2  0  0  0  0  0  0  0  0  0
    0.2381   -1.0307   -0.3954 C   0  0  0  0  0  0  0  0  0  0  0  0
   -1.1883   -0.9881   -0.0630 N   0  0  0  0  0  0  0  0  0  0  0  0
   -2.0579   -1.9774   -0.0018 N   0  0  0  0  0  0  0  0  0  0  0  0
   -3.2456   -1.5201    0.3337 N   0  0  0  0  0  0  0  0  0  0  0  0
   -3.1046   -0.1959    0.4860 N   0  0  0  0  0  0  0  0  0  0  0  0
   -1.8255    0.1504    0.2415 C   0  0  0  0  0  0  0  0  0  0  0  0
   -1.1166    1.4662    0.2626 C   0  0  0  0  0  0  0  0  0  0  0  0
    0.1539    1.3489   -0.4313 N   0  0  0  0  0  0  0  0  0  0  0  0
    4.0724   -0.8253    0.1244 H   0  0  0  0  0  0  0  0  0  0  0  0
    0.6376    0.2288    1.2661 H   0  0  0  0  0  0  0  0  0  0  0  0
    0.2758   -1.0014   -1.5145 H   0  0  0  0  0  0  0  0  0  0  0  0
    0.7340   -1.9172    0.0110 H   0  0  0  0  0  0  0  0  0  0  0  0
   -1.7645    2.2450   -0.1833 H   0  0  0  0  0  0  0  0  0  0  0  0
   -0.8836    1.7199    1.3110 H   0  0  0  0  0  0  0  0  0  0  0  0
   -0.0032    1.1585   -1.4482 H   0  0  0  0  0  0  0  0  0  0  0  0
  1  2  2  0
  2  3  1  0
  2  4  1  0
  4  5  1  0
  5  6  1  0
  6  7  1  0
  7  8  2  0
  8  9  1  0
  9 10  2  0
 10 11  1  0
 11 12  1  0
 12  4  1  0
 10  6  1  0
  3 13  1  0
  4 14  1  1
  5 15  1  0
  5 16  1  0
 11 17  1  0
 11 18  1  0
 12 19  1  0
M  END
$$$$

     RDKit          3D

 19 20  0  0  0  0  0  0  0  0999 V2000
   -2.1588    0.4753    0.8230 O   0  0  0  0  0  0  0  0  0  0  0  0
   -1.7640   -0.4654    0.0848 C   0  0  0  0  0  0  0  0  0  0  0  0
   -2.3015   -1.7184    0.3368 O   0  0  0  0  0  0  0  0  0  0  0  0
   -0.7909   -0.1651   -0.9562 C   0  0  2  0  0  0  0  0  0  0  0  0
    0.4553   -1.0058   -0.8976 C   0  0  0  0  0  0  0  0  0  0  0  0
    1.3419   -0.6161    0.1656 N   0  0  0  0  0  0  0  0  0  0  0  0
    2.2782   -1.2458    0.8167 N   0  0  0  0  0  0  0  0  0  0  0  0
    2.8271   -0.4571    1.7230 N   0  0  0  0  0  0  0  0  0  0  0  0
    2.1983    0.7037    1.6201 N   0  0  0  0  0  0  0  0  0  0  0  0
    1.2680    0.6235    0.6533 C   0  0  0  0  0  0  0  0  0  0  0  0
    0.3224    1.6474    0.1716 C   0  0  0  0  0  0  0  0  0  0  0  0
   -0.4363    1.2126   -0.9583 N   0  0  0  0  0  0  0  0  0  0  0  0
   -2.4718   -1.9747    1.3122 H   0  0  0  0  0  0  0  0  0  0  0  0
   -1.2660   -0.3836   -1.9532 H   0  0  0  0  0  0  0  0  0  0  0  0
    0.9990   -0.8096   -1.8613 H   0  0  0  0  0  0  0  0  0  0  0  0
    0.2336   -2.0947   -0.9081 H   0  0  0  0  0  0  0  0  0  0  0  0
   -0.3497    1.9428    1.0110 H   0  0  0  0  0  0  0  0  0  0  0  0
    0.9151    2.5486   -0.1611 H   0  0  0  0  0  0  0  0  0  0  0  0
   -1.2998    1.7824   -1.0225 H   0  0  0  0  0  0  0  0  0  0  0  0
  1  2  2  0
  2  3  1  0
  2  4  1  0
  4  5  1  0
  5  6  1  0
  6  7  1  0
  7  8  2  0
  8  9  1  0
  9 10  2  0
 10 11  1  0
 11 12  1  0
 12  4  1  0
 10  6  1  0
  3 13  1  0
  4 14  1  6
  5 15  1  0
  5 16  1  0
 11 17  1  0
 11 18  1  0
 12 19  1  0
M  END
$$$$

     RDKit          3D

 19 20  0  0  0  0  0  0  0  0999 V2000
   -2.5898    0.6987    0.8519 O   0  0  0  0  0  0  0  0  0  0  0  0
   -2.0888   -0.2543    0.2106 C   0  0  0  0  0  0  0  0  0  0  0  0
   -2.6493   -1.5076    0.2928 O   0  0  0  0  0  0  0  0  0  0  0  0
   -0.8761   -0.0877   -0.6642 C   0  0  2  0  0  0  0  0  0  0  0  0
    0.1194   -1.1148   -0.3058 C   0  0  0  0  0  0  0  0  0  0  0  0
    1.2300   -0.6415    0.4869 N   0  0  0  0  0  0  0  0  0  0  0  0
    2.0064   -1.2300    1.3507 N   0  0  0  0  0  0  0  0  0  0  0  0
    2.8865   -0.3603    1.8120 N   0  0  0  0  0  0  0  0  0  0  0  0
    2.6417    0.7795    1.2182 N   0  0  0  0  0  0  0  0  0  0  0  0
    1.6084    0.6194    0.3865 C   0  0  0  0  0  0  0  0  0  0  0  0
    0.8997    1.5404   -0.5313 C   0  0  0  0  0  0  0  0  0  0  0  0
   -0.4845    1.2625   -0.5916 N   0  0  0  0  0  0  0  0  0  0  0  0
   -3.1294   -1.7827    1.1570 H   0  0  0  0  0  0  0  0  0  0  0  0
   -1.2521   -0.3031   -1.7075 H   0  0  0  0  0  0  0  0  0  0  0  0
    0.5374   -1.5957   -1.2373 H   0  0  0  0  0  0  0  0  0  0  0  0
   -0.3600   -1.9425    0.2578 H   0  0  0  0  0  0  0  0  0  0  0  0
    1.4176    1.5358   -1.5261 H   0  0  0  0  0  0  0  0  0  0  0  0
    1.0392    2.5697   -0.1313 H   0  0  0  0  0  0  0  0  0  0  0  0
   -0.9566    1.8142   -1.3293 H   0  0  0  0  0  0  0  0  0  0  0  0
  1  2  2  0
  2  3  1  0
  2  4  1  0
  4  5  1  0
  5  6  1  0
  6  7  1  0
  7  8  2  0
  8  9  1  0
  9 10  2  0
 10 11  1  0
 11 12  1  0
 12  4  1  0
 10  6  1  0
  3 13  1  0
  4 14  1  6
  5 15  1  0
  5 16  1  0
 11 17  1  0
 11 18  1  0
 12 19  1  0
M  END
$$$$

     RDKit          3D

 19 20  0  0  0  0  0  0  0  0999 V2000
    2.4441    2.1490   -0.2603 O   0  0  0  0  0  0  0  0  0  0  0  0
    1.9576    1.0852   -0.0066 C   0  0  0  0  0  0  0  0  0  0  0  0
    2.7651    0.1574    0.7623 O   0  0  0  0  0  0  0  0  0  0  0  0
    0.6379    0.5563   -0.3195 C   0  0  2  0  0  0  0  0  0  0  0  0
   -0.1653    0.2977    0.9501 C   0  0  0  0  0  0  0  0  0  0  0  0
   -1.5424    0.2412    0.4574 N   0  0  0  0  0  0  0  0  0  0  0  0
   -2.6048    0.8307    0.6333 N   0  0  0  0  0  0  0  0  0  0  0  0
   -3.5533    0.3542   -0.1203 N   0  0  0  0  0  0  0  0  0  0  0  0
   -2.9965   -0.6330   -0.8931 N   0  0  0  0  0  0  0  0  0  0  0  0
   -1.6742   -0.6991   -0.4896 C   0  0  0  0  0  0  0  0  0  0  0  0
   -0.4766   -1.4356   -0.8907 C   0  0  0  0  0  0  0  0  0  0  0  0
    0.4813   -0.4101   -1.3504 N   0  0  0  0  0  0  0  0  0  0  0  0
    3.7662    0.3449    0.7906 H   0  0  0  0  0  0  0  0  0  0  0  0
    0.0446    1.4874   -0.7666 H   0  0  0  0  0  0  0  0  0  0  0  0
    0.2063   -0.5604    1.5052 H   0  0  0  0  0  0  0  0  0  0  0  0
   -0.0241    1.2126    1.5632 H   0  0  0  0  0  0  0  0  0  0  0  0
   -0.0391   -1.8796    0.0038 H   0  0  0  0  0  0  0  0  0  0  0  0
   -0.6320   -2.1907   -1.6438 H   0  0  0  0  0  0  0  0  0  0  0  0
    1.4054   -0.9079   -1.4776 H   0  0  0  0  0  0  0  0  0  0  0  0
  1  2  2  0
  2  3  1  0
  2  4  1  0
  4  5  1  0
  5  6  1  0
  6  7  1  0
  7  8  2  0
  8  9  1  0
  9 10  2  0
 10 11  1  0
 11 12  1  0
 12  4  1  0
 10  6  1  0
  3 13  1  0
  4 14  1  6
  5 15  1  0
  5 16  1  0
 11 17  1  0
 11 18  1  0
 12 19  1  0
M  END
$$$$
