
     RDKit          3D

 28 27  0  0  0  0  0  0  0  0999 V2000
    2.7586   -2.0566   -1.1174 C   0  0  0  0  0  0  0  0  0  0  0  0
    1.7244   -0.9945   -1.2123 C   0  0  0  0  0  0  0  0  0  0  0  0
    1.1110   -0.8610   -2.2853 O   0  0  0  0  0  0  0  0  0  0  0  0
    1.4014   -0.1240   -0.1386 N   0  0  0  0  0  0  0  0  0  0  0  0
    0.3959    0.8660   -0.3181 C   0  0  2  0  0  0  0  0  0  0  0  0
    1.0885    2.2335   -0.2290 C   0  0  0  0  0  0  0  0  0  0  0  0
    2.0585    2.3505   -1.2160 O   0  0  0  0  0  0  0  0  0  0  0  0
   -0.7236    0.7886    0.6837 C   0  0  1  0  0  0  0  0  0  0  0  0
   -1.6707    1.7820    0.4524 O   0  0  0  0  0  0  0  0  0  0  0  0
   -1.3399   -0.5930    0.6057 C   0  0  2  0  0  0  0  0  0  0  0  0
   -1.8931   -0.8352   -0.6335 O   0  0  0  0  0  0  0  0  0  0  0  0
   -2.4360   -0.7728    1.6386 C   0  0  0  0  0  0  0  0  0  0  0  0
   -2.8802   -2.1009    1.5116 O   0  0  0  0  0  0  0  0  0  0  0  0
    3.7662   -1.6481   -1.3281 H   0  0  0  0  0  0  0  0  0  0  0  0
    2.5025   -2.8687   -1.8252 H   0  0  0  0  0  0  0  0  0  0  0  0
    2.6888   -2.4570   -0.0718 H   0  0  0  0  0  0  0  0  0  0  0  0
    1.9235   -0.2465    0.7563 H   0  0  0  0  0  0  0  0  0  0  0  0
   -0.0264    0.8208   -1.3367 H   0  0  0  0  0  0  0  0  0  0  0  0
    1.6131    2.3299    0.7456 H   0  0  0  0  0  0  0  0  0  0  0  0
    0.3504    3.0494   -0.2836 H   0  0  0  0  0  0  0  0  0  0  0  0
    1.6192    2.7894   -2.0010 H   0  0  0  0  0  0  0  0  0  0  0  0
   -0.3101    0.9631    1.6968 H   0  0  0  0  0  0  0  0  0  0  0  0
   -1.9807    2.2305    1.2671 H   0  0  0  0  0  0  0  0  0  0  0  0
   -0.5709   -1.3597    0.8273 H   0  0  0  0  0  0  0  0  0  0  0  0
   -2.5992   -0.2120   -0.8857 H   0  0  0  0  0  0  0  0  0  0  0  0
   -3.3215   -0.1395    1.4302 H   0  0  0  0  0  0  0  0  0  0  0  0
   -2.0609   -0.6411    2.6709 H   0  0  0  0  0  0  0  0  0  0  0  0
   -3.1887   -2.2933    0.5960 H   0  0  0  0  0  0  0  0  0  0  0  0
  1  2  1  0
  2  3  2  0
  2  4  1  0
  4  5  1  0
  5  6  1  0
  6  7  1  0
  5  8  1  0
  8  9  1  0
  8 10  1  0
 10 11  1  0
 10 12  1  0
 12 13  1  0
  1 14  1  0
  1 15  1  0
  1 16  1  0
  4 17  1  0
  5 18  1  6
  6 19  1  0
  6 20  1  0
  7 21  1  0
  8 22  1  1
  9 23  1  0
 10 24  1  1
 11 25  1  0
 12 26  1  0
 12 27  1  0
 13 28  1  0
M  END
$$$$

     RDKit          3D

 28 27  0  0  0  0  0  0  0  0999 V2000
   -4.1028    0.8042   -0.2616 C   0  0  0  0  0  0  0  0  0  0  0  0
   -2.8054    0.3574   -0.8183 C   0  0  0  0  0  0  0  0  0  0  0  0
   -2.5723    0.3092   -2.0564 O   0  0  0  0  0  0  0  0  0  0  0  0
   -1.7852   -0.0311    0.0587 N   0  0  0  0  0  0  0  0  0  0  0  0
   -0.4543   -0.4920   -0.4208 C   0  0  2  0  0  0  0  0  0  0  0  0
   -0.3562   -1.8879    0.1508 C   0  0  0  0  0  0  0  0  0  0  0  0
    0.7833   -2.5712   -0.1568 O   0  0  0  0  0  0  0  0  0  0  0  0
    0.5459    0.4334    0.2050 C   0  0  1  0  0  0  0  0  0  0  0  0
    0.5141    0.3780    1.5959 O   0  0  0  0  0  0  0  0  0  0  0  0
    1.9318    0.3714   -0.3273 C   0  0  2  0  0  0  0  0  0  0  0  0
    2.5978   -0.7812    0.0609 O   0  0  0  0  0  0  0  0  0  0  0  0
    2.7768    1.5402    0.1920 C   0  0  0  0  0  0  0  0  0  0  0  0
    4.0442    1.5182   -0.3405 O   0  0  0  0  0  0  0  0  0  0  0  0
   -4.4807    0.0402    0.4575 H   0  0  0  0  0  0  0  0  0  0  0  0
   -4.8390    0.8725   -1.0870 H   0  0  0  0  0  0  0  0  0  0  0  0
   -3.9638    1.7412    0.2933 H   0  0  0  0  0  0  0  0  0  0  0  0
   -1.8957   -0.0207    1.0885 H   0  0  0  0  0  0  0  0  0  0  0  0
   -0.4147   -0.4753   -1.5099 H   0  0  0  0  0  0  0  0  0  0  0  0
   -0.4886   -1.8244    1.2506 H   0  0  0  0  0  0  0  0  0  0  0  0
   -1.2232   -2.5165   -0.2046 H   0  0  0  0  0  0  0  0  0  0  0  0
    0.6419   -3.5210   -0.0060 H   0  0  0  0  0  0  0  0  0  0  0  0
    0.1890    1.5104   -0.0165 H   0  0  0  0  0  0  0  0  0  0  0  0
    1.0116   -0.4166    1.9130 H   0  0  0  0  0  0  0  0  0  0  0  0
    1.9849    0.4591   -1.4337 H   0  0  0  0  0  0  0  0  0  0  0  0
    3.1215   -0.6095    0.8843 H   0  0  0  0  0  0  0  0  0  0  0  0
    2.2649    2.5075   -0.0133 H   0  0  0  0  0  0  0  0  0  0  0  0
    2.8519    1.4099    1.2902 H   0  0  0  0  0  0  0  0  0  0  0  0
    4.1222    0.8944   -1.0989 H   0  0  0  0  0  0  0  0  0  0  0  0
  1  2  1  0
  2  3  2  0
  2  4  1  0
  4  5  1  0
  5  6  1  0
  6  7  1  0
  5  8  1  0
  8  9  1  0
  8 10  1  0
 10 11  1  0
 10 12  1  0
 12 13  1  0
  1 14  1  0
  1 15  1  0
  1 16  1  0
  4 17  1  0
  5 18  1  6
  6 19  1  0
  6 20  1  0
  7 21  1  0
  8 22  1  1
  9 23  1  0
 10 24  1  6
 11 25  1  0
 12 26  1  0
 12 27  1  0
 13 28  1  0
M  END
$$$$

     RDKit          3D

 28 27  0  0  0  0  0  0  0  0999 V2000
    3.0707    1.1793    0.9479 C   0  0  0  0  0  0  0  0  0  0  0  0
    2.1390    0.1253    0.5426 C   0  0  0  0  0  0  0  0  0  0  0  0
    1.9952   -0.9760    1.1342 O   0  0  0  0  0  0  0  0  0  0  0  0
    1.3246    0.3523   -0.6120 N   0  0  0  0  0  0  0  0  0  0  0  0
    0.3773   -0.5995   -1.1076 C   0  0  2  0  0  0  0  0  0  0  0  0
    0.7109   -1.1312   -2.4792 C   0  0  0  0  0  0  0  0  0  0  0  0
    1.9463   -1.7747   -2.4964 O   0  0  0  0  0  0  0  0  0  0  0  0
   -1.0385   -0.1010   -1.0154 C   0  0  1  0  0  0  0  0  0  0  0  0
   -1.9268   -1.0361   -1.4991 O   0  0  0  0  0  0  0  0  0  0  0  0
   -1.3956    0.1621    0.4326 C   0  0  2  0  0  0  0  0  0  0  0  0
   -1.2952   -1.0254    1.1534 O   0  0  0  0  0  0  0  0  0  0  0  0
   -2.7432    0.7944    0.5845 C   0  0  0  0  0  0  0  0  0  0  0  0
   -2.7999    1.9660   -0.1441 O   0  0  0  0  0  0  0  0  0  0  0  0
    3.6302    1.6308    0.1116 H   0  0  0  0  0  0  0  0  0  0  0  0
    2.5399    2.0381    1.4510 H   0  0  0  0  0  0  0  0  0  0  0  0
    3.8241    0.8166    1.6921 H   0  0  0  0  0  0  0  0  0  0  0  0
    1.4022    1.2657   -1.1537 H   0  0  0  0  0  0  0  0  0  0  0  0
    0.4341   -1.4924   -0.4155 H   0  0  0  0  0  0  0  0  0  0  0  0
   -0.0487   -1.9083   -2.7163 H   0  0  0  0  0  0  0  0  0  0  0  0
    0.7199   -0.3626   -3.2535 H   0  0  0  0  0  0  0  0  0  0  0  0
    1.9893   -2.5622   -1.9200 H   0  0  0  0  0  0  0  0  0  0  0  0
   -1.1866    0.8301   -1.6064 H   0  0  0  0  0  0  0  0  0  0  0  0
   -2.2076   -1.6209   -0.7537 H   0  0  0  0  0  0  0  0  0  0  0  0
   -0.6246    0.8472    0.8499 H   0  0  0  0  0  0  0  0  0  0  0  0
   -2.0819   -1.2005    1.7005 H   0  0  0  0  0  0  0  0  0  0  0  0
   -3.5489    0.1076    0.2535 H   0  0  0  0  0  0  0  0  0  0  0  0
   -2.9095    0.9835    1.6595 H   0  0  0  0  0  0  0  0  0  0  0  0
   -2.2966    2.6918    0.3023 H   0  0  0  0  0  0  0  0  0  0  0  0
  1  2  1  0
  2  3  2  0
  2  4  1  0
  4  5  1  0
  5  6  1  0
  6  7  1  0
  5  8  1  0
  8  9  1  0
  8 10  1  0
 10 11  1  0
 10 12  1  0
 12 13  1  0
  1 14  1  0
  1 15  1  0
  1 16  1  0
  4 17  1  0
  5 18  1  1
  6 19  1  0
  6 20  1  0
  7 21  1  0
  8 22  1  6
  9 23  1  0
 10 24  1  1
 11 25  1  0
 12 26  1  0
 12 27  1  0
 13 28  1  0
M  END
$$$$

     RDKit          3D

 28 27  0  0  0  0  0  0  0  0999 V2000
    3.4633    0.3730    1.0916 C   0  0  0  0  0  0  0  0  0  0  0  0
    2.3215   -0.3277    0.4266 C   0  0  0  0  0  0  0  0  0  0  0  0
    2.2000   -1.5600    0.7188 O   0  0  0  0  0  0  0  0  0  0  0  0
    1.4368    0.3344   -0.4665 N   0  0  0  0  0  0  0  0  0  0  0  0
    0.3654   -0.3884   -1.0700 C   0  0  2  0  0  0  0  0  0  0  0  0
    0.5950   -0.3792   -2.5864 C   0  0  0  0  0  0  0  0  0  0  0  0
    1.8008   -0.9770   -2.9217 O   0  0  0  0  0  0  0  0  0  0  0  0
   -0.9876    0.2106   -0.8356 C   0  0  1  0  0  0  0  0  0  0  0  0
   -1.9321   -0.5905   -1.4757 O   0  0  0  0  0  0  0  0  0  0  0  0
   -1.3608    0.3206    0.6037 C   0  0  2  0  0  0  0  0  0  0  0  0
   -1.3806   -0.9494    1.1949 O   0  0  0  0  0  0  0  0  0  0  0  0
   -2.8131    0.8153    0.6540 C   0  0  0  0  0  0  0  0  0  0  0  0
   -3.2843    0.8944    1.9473 O   0  0  0  0  0  0  0  0  0  0  0  0
    3.7992    1.2559    0.5349 H   0  0  0  0  0  0  0  0  0  0  0  0
    4.3466   -0.3201    1.1519 H   0  0  0  0  0  0  0  0  0  0  0  0
    3.1948    0.6132    2.1458 H   0  0  0  0  0  0  0  0  0  0  0  0
    1.6011    1.3470   -0.6566 H   0  0  0  0  0  0  0  0  0  0  0  0
    0.3635   -1.4394   -0.7419 H   0  0  0  0  0  0  0  0  0  0  0  0
   -0.2026   -0.9969   -3.0930 H   0  0  0  0  0  0  0  0  0  0  0  0
    0.4758    0.6386   -2.9986 H   0  0  0  0  0  0  0  0  0  0  0  0
    1.7048   -1.9559   -3.0270 H   0  0  0  0  0  0  0  0  0  0  0  0
   -1.0654    1.2292   -1.2855 H   0  0  0  0  0  0  0  0  0  0  0  0
   -1.6081   -1.5333   -1.5621 H   0  0  0  0  0  0  0  0  0  0  0  0
   -0.7052    0.9871    1.1821 H   0  0  0  0  0  0  0  0  0  0  0  0
   -2.2284   -1.3825    0.8736 H   0  0  0  0  0  0  0  0  0  0  0  0
   -2.8918    1.8368    0.1964 H   0  0  0  0  0  0  0  0  0  0  0  0
   -3.4738    0.1640    0.0789 H   0  0  0  0  0  0  0  0  0  0  0  0
   -3.7348    1.7802    2.1241 H   0  0  0  0  0  0  0  0  0  0  0  0
  1  2  1  0
  2  3  2  0
  2  4  1  0
  4  5  1  0
  5  6  1  0
  6  7  1  0
  5  8  1  0
  8  9  1  0
  8 10  1  0
 10 11  1  0
 10 12  1  0
 12 13  1  0
  1 14  1  0
  1 15  1  0
  1 16  1  0
  4 17  1  0
  5 18  1  1
  6 19  1  0
  6 20  1  0
  7 21  1  0
  8 22  1  6
  9 23  1  0
 10 24  1  1
 11 25  1  0
 12 26  1  0
 12 27  1  0
 13 28  1  0
M  END
$$$$

     RDKit          3D

 28 27  0  0  0  0  0  0  0  0999 V2000
    3.6015    1.8301    0.2186 C   0  0  0  0  0  0  0  0  0  0  0  0
    2.4506    0.9554    0.5860 C   0  0  0  0  0  0  0  0  0  0  0  0
    2.3106    0.5156    1.7565 O   0  0  0  0  0  0  0  0  0  0  0  0
    1.4644    0.5807   -0.3648 N   0  0  0  0  0  0  0  0  0  0  0  0
    0.3620   -0.2590   -0.0063 C   0  0  2  0  0  0  0  0  0  0  0  0
    0.3586   -1.5818   -0.7268 C   0  0  0  0  0  0  0  0  0  0  0  0
    0.2890   -1.4866   -2.0877 O   0  0  0  0  0  0  0  0  0  0  0  0
   -0.9687    0.4697   -0.1127 C   0  0  1  0  0  0  0  0  0  0  0  0
   -1.2232    0.9231   -1.3962 O   0  0  0  0  0  0  0  0  0  0  0  0
   -2.1218   -0.3690    0.3587 C   0  0  2  0  0  0  0  0  0  0  0  0
   -3.2884    0.3885    0.3632 O   0  0  0  0  0  0  0  0  0  0  0  0
   -1.9292   -0.8776    1.7711 C   0  0  0  0  0  0  0  0  0  0  0  0
   -1.8096    0.1707    2.6817 O   0  0  0  0  0  0  0  0  0  0  0  0
    4.4747    1.6636    0.8754 H   0  0  0  0  0  0  0  0  0  0  0  0
    3.9427    1.5976   -0.8316 H   0  0  0  0  0  0  0  0  0  0  0  0
    3.3053    2.9000    0.1881 H   0  0  0  0  0  0  0  0  0  0  0  0
    1.5600    0.9402   -1.3635 H   0  0  0  0  0  0  0  0  0  0  0  0
    0.4730   -0.5047    1.0719 H   0  0  0  0  0  0  0  0  0  0  0  0
   -0.5109   -2.1685   -0.3708 H   0  0  0  0  0  0  0  0  0  0  0  0
    1.2574   -2.1339   -0.3859 H   0  0  0  0  0  0  0  0  0  0  0  0
    0.8946   -2.1468   -2.4849 H   0  0  0  0  0  0  0  0  0  0  0  0
   -0.8591    1.3557    0.5812 H   0  0  0  0  0  0  0  0  0  0  0  0
   -1.6628    0.2154   -1.9399 H   0  0  0  0  0  0  0  0  0  0  0  0
   -2.2907   -1.1954   -0.3560 H   0  0  0  0  0  0  0  0  0  0  0  0
   -3.8119    0.3013   -0.4658 H   0  0  0  0  0  0  0  0  0  0  0  0
   -1.0695   -1.5630    1.8783 H   0  0  0  0  0  0  0  0  0  0  0  0
   -2.8197   -1.4604    2.0974 H   0  0  0  0  0  0  0  0  0  0  0  0
   -2.3789    0.9391    2.4545 H   0  0  0  0  0  0  0  0  0  0  0  0
  1  2  1  0
  2  3  2  0
  2  4  1  0
  4  5  1  0
  5  6  1  0
  6  7  1  0
  5  8  1  0
  8  9  1  0
  8 10  1  0
 10 11  1  0
 10 12  1  0
 12 13  1  0
  1 14  1  0
  1 15  1  0
  1 16  1  0
  4 17  1  0
  5 18  1  1
  6 19  1  0
  6 20  1  0
  7 21  1  0
  8 22  1  1
  9 23  1  0
 10 24  1  6
 11 25  1  0
 12 26  1  0
 12 27  1  0
 13 28  1  0
M  END
$$$$

     RDKit          3D

 28 27  0  0  0  0  0  0  0  0999 V2000
   -3.7685    0.1312   -1.5867 C   0  0  0  0  0  0  0  0  0  0  0  0
   -2.3466   -0.2269   -1.3514 C   0  0  0  0  0  0  0  0  0  0  0  0
   -1.7040   -0.6946   -2.3218 O   0  0  0  0  0  0  0  0  0  0  0  0
   -1.6928   -0.0694   -0.1084 N   0  0  0  0  0  0  0  0  0  0  0  0
   -0.3018   -0.4172    0.1307 C   0  0  2  0  0  0  0  0  0  0  0  0
   -0.1657   -1.5357    1.1269 C   0  0  0  0  0  0  0  0  0  0  0  0
   -0.8356   -2.6622    0.6256 O   0  0  0  0  0  0  0  0  0  0  0  0
    0.5283    0.7647    0.5012 C   0  0  1  0  0  0  0  0  0  0  0  0
   -0.0332    1.3076    1.6610 O   0  0  0  0  0  0  0  0  0  0  0  0
    1.9805    0.4322    0.7043 C   0  0  2  0  0  0  0  0  0  0  0  0
    2.7128    1.5818    1.0412 O   0  0  0  0  0  0  0  0  0  0  0  0
    2.5897   -0.2570   -0.4933 C   0  0  0  0  0  0  0  0  0  0  0  0
    3.9143   -0.6126   -0.2089 O   0  0  0  0  0  0  0  0  0  0  0  0
   -3.9250    0.4984   -2.6264 H   0  0  0  0  0  0  0  0  0  0  0  0
   -4.3643   -0.8110   -1.4356 H   0  0  0  0  0  0  0  0  0  0  0  0
   -4.0932    0.8809   -0.8436 H   0  0  0  0  0  0  0  0  0  0  0  0
   -2.2561    0.3227    0.6790 H   0  0  0  0  0  0  0  0  0  0  0  0
    0.0707   -0.8090   -0.8565 H   0  0  0  0  0  0  0  0  0  0  0  0
   -0.6335   -1.2897    2.0992 H   0  0  0  0  0  0  0  0  0  0  0  0
    0.8793   -1.8445    1.2527 H   0  0  0  0  0  0  0  0  0  0  0  0
   -1.2067   -3.1737    1.3664 H   0  0  0  0  0  0  0  0  0  0  0  0
    0.4674    1.5011   -0.3316 H   0  0  0  0  0  0  0  0  0  0  0  0
    0.6116    1.8302    2.1891 H   0  0  0  0  0  0  0  0  0  0  0  0
    2.0641   -0.2317    1.5777 H   0  0  0  0  0  0  0  0  0  0  0  0
    2.5507    2.3134    0.3796 H   0  0  0  0  0  0  0  0  0  0  0  0
    2.0129   -1.1648   -0.7591 H   0  0  0  0  0  0  0  0  0  0  0  0
    2.5390    0.4328   -1.3546 H   0  0  0  0  0  0  0  0  0  0  0  0
    4.4058   -0.8132   -1.0567 H   0  0  0  0  0  0  0  0  0  0  0  0
  1  2  1  0
  2  3  2  0
  2  4  1  0
  4  5  1  0
  5  6  1  0
  6  7  1  0
  5  8  1  0
  8  9  1  0
  8 10  1  0
 10 11  1  0
 10 12  1  0
 12 13  1  0
  1 14  1  0
  1 15  1  0
  1 16  1  0
  4 17  1  0
  5 18  1  6
  6 19  1  0
  6 20  1  0
  7 21  1  0
  8 22  1  6
  9 23  1  0
 10 24  1  1
 11 25  1  0
 12 26  1  0
 12 27  1  0
 13 28  1  0
M  END
$$$$

     RDKit          3D

 28 27  0  0  0  0  0  0  0  0999 V2000
   -2.9558   -1.1650   -1.6495 C   0  0  0  0  0  0  0  0  0  0  0  0
   -2.1197   -0.9323   -0.4415 C   0  0  0  0  0  0  0  0  0  0  0  0
   -2.1850   -1.7375    0.5407 O   0  0  0  0  0  0  0  0  0  0  0  0
   -1.2239    0.1916   -0.3435 N   0  0  0  0  0  0  0  0  0  0  0  0
   -0.4569    0.3482    0.8423 C   0  0  2  0  0  0  0  0  0  0  0  0
   -0.9931    1.5831    1.5877 C   0  0  0  0  0  0  0  0  0  0  0  0
   -0.3025    1.8102    2.7559 O   0  0  0  0  0  0  0  0  0  0  0  0
    1.0049    0.5676    0.6757 C   0  0  1  0  0  0  0  0  0  0  0  0
    1.5211    0.6896    1.9973 O   0  0  0  0  0  0  0  0  0  0  0  0
    1.7736   -0.5417    0.0445 C   0  0  2  0  0  0  0  0  0  0  0  0
    3.1391   -0.1434    0.0980 O   0  0  0  0  0  0  0  0  0  0  0  0
    1.4987   -0.6992   -1.4413 C   0  0  0  0  0  0  0  0  0  0  0  0
    2.3653   -1.6741   -1.9889 O   0  0  0  0  0  0  0  0  0  0  0  0
   -3.4134   -0.1871   -1.9184 H   0  0  0  0  0  0  0  0  0  0  0  0
   -3.7732   -1.8403   -1.3819 H   0  0  0  0  0  0  0  0  0  0  0  0
   -2.3696   -1.5991   -2.4865 H   0  0  0  0  0  0  0  0  0  0  0  0
   -1.2109    0.8141   -1.1713 H   0  0  0  0  0  0  0  0  0  0  0  0
   -0.6119   -0.5280    1.5136 H   0  0  0  0  0  0  0  0  0  0  0  0
   -0.8382    2.4303    0.8803 H   0  0  0  0  0  0  0  0  0  0  0  0
   -2.0671    1.4348    1.6995 H   0  0  0  0  0  0  0  0  0  0  0  0
    0.1614    2.6870    2.7316 H   0  0  0  0  0  0  0  0  0  0  0  0
    1.2624    1.5303    0.1914 H   0  0  0  0  0  0  0  0  0  0  0  0
    1.4325   -0.2228    2.4058 H   0  0  0  0  0  0  0  0  0  0  0  0
    1.7148   -1.4875    0.6038 H   0  0  0  0  0  0  0  0  0  0  0  0
    3.1599    0.8217   -0.1581 H   0  0  0  0  0  0  0  0  0  0  0  0
    0.4899   -1.0935   -1.5989 H   0  0  0  0  0  0  0  0  0  0  0  0
    1.7314    0.2402   -1.9512 H   0  0  0  0  0  0  0  0  0  0  0  0
    3.2661   -1.2971   -2.0372 H   0  0  0  0  0  0  0  0  0  0  0  0
  1  2  1  0
  2  3  2  0
  2  4  1  0
  4  5  1  0
  5  6  1  0
  6  7  1  0
  5  8  1  0
  8  9  1  0
  8 10  1  0
 10 11  1  0
 10 12  1  0
 12 13  1  0
  1 14  1  0
  1 15  1  0
  1 16  1  0
  4 17  1  0
  5 18  1  1
  6 19  1  0
  6 20  1  0
  7 21  1  0
  8 22  1  6
  9 23  1  0
 10 24  1  1
 11 25  1  0
 12 26  1  0
 12 27  1  0
 13 28  1  0
M  END
$$$$

     RDKit          3D

 28 27  0  0  0  0  0  0  0  0999 V2000
    2.7165    2.0743    0.7808 C   0  0  0  0  0  0  0  0  0  0  0  0
    2.0810    0.7806    0.4366 C   0  0  0  0  0  0  0  0  0  0  0  0
    2.5090   -0.2934    0.9288 O   0  0  0  0  0  0  0  0  0  0  0  0
    0.9779    0.6554   -0.4445 N   0  0  0  0  0  0  0  0  0  0  0  0
    0.3977   -0.6215   -0.7459 C   0  0  2  0  0  0  0  0  0  0  0  0
    0.6993   -1.0846   -2.1498 C   0  0  0  0  0  0  0  0  0  0  0  0
    0.1083   -2.3280   -2.3353 O   0  0  0  0  0  0  0  0  0  0  0  0
   -1.0850   -0.7083   -0.5641 C   0  0  1  0  0  0  0  0  0  0  0  0
   -1.4066   -2.0518   -0.9014 O   0  0  0  0  0  0  0  0  0  0  0  0
   -1.6095   -0.5058    0.8082 C   0  0  2  0  0  0  0  0  0  0  0  0
   -3.0061   -0.7867    0.7032 O   0  0  0  0  0  0  0  0  0  0  0  0
   -1.5736    0.9315    1.2977 C   0  0  0  0  0  0  0  0  0  0  0  0
   -2.2422    1.0250    2.5429 O   0  0  0  0  0  0  0  0  0  0  0  0
    2.9317    2.0900    1.8787 H   0  0  0  0  0  0  0  0  0  0  0  0
    2.0582    2.9344    0.5781 H   0  0  0  0  0  0  0  0  0  0  0  0
    3.6941    2.2244    0.2800 H   0  0  0  0  0  0  0  0  0  0  0  0
    0.5739    1.5040   -0.8869 H   0  0  0  0  0  0  0  0  0  0  0  0
    0.8760   -1.3707   -0.0853 H   0  0  0  0  0  0  0  0  0  0  0  0
    0.1730   -0.3868   -2.8576 H   0  0  0  0  0  0  0  0  0  0  0  0
    1.7606   -1.1880   -2.3694 H   0  0  0  0  0  0  0  0  0  0  0  0
    0.7763   -3.0142   -2.0578 H   0  0  0  0  0  0  0  0  0  0  0  0
   -1.6509   -0.0936   -1.2879 H   0  0  0  0  0  0  0  0  0  0  0  0
   -0.9560   -2.6052   -0.2003 H   0  0  0  0  0  0  0  0  0  0  0  0
   -1.2134   -1.2187    1.5227 H   0  0  0  0  0  0  0  0  0  0  0  0
   -3.3063   -0.2134   -0.0491 H   0  0  0  0  0  0  0  0  0  0  0  0
   -0.5541    1.3024    1.3618 H   0  0  0  0  0  0  0  0  0  0  0  0
   -2.1438    1.5993    0.6196 H   0  0  0  0  0  0  0  0  0  0  0  0
   -1.5859    1.3494    3.1964 H   0  0  0  0  0  0  0  0  0  0  0  0
  1  2  1  0
  2  3  2  0
  2  4  1  0
  4  5  1  0
  5  6  1  0
  6  7  1  0
  5  8  1  0
  8  9  1  0
  8 10  1  0
 10 11  1  0
 10 12  1  0
 12 13  1  0
  1 14  1  0
  1 15  1  0
  1 16  1  0
  4 17  1  0
  5 18  1  1
  6 19  1  0
  6 20  1  0
  7 21  1  0
  8 22  1  6
  9 23  1  0
 10 24  1  1
 11 25  1  0
 12 26  1  0
 12 27  1  0
 13 28  1  0
M  END
$$$$
