
     RDKit          3D

 23 23  0  0  0  0  0  0  0  0999 V2000
   -3.3231    0.3738   -0.5914 N   0  0  0  0  0  0  0  0  0  0  0  0
   -2.1001    0.9177   -0.1318 C   0  0  0  0  0  0  0  0  0  0  0  0
   -1.8859    2.1373   -0.3206 O   0  0  0  0  0  0  0  0  0  0  0  0
   -1.1414    0.0605    0.5361 C   0  0  1  0  0  0  0  0  0  0  0  0
   -1.6540   -1.2931    0.6131 N   0  0  0  0  0  0  0  0  0  0  0  0
    0.2155    0.0026   -0.0730 C   0  0  2  0  0  0  0  0  0  0  0  0
    1.0970   -0.8248    0.8743 C   0  0  0  0  0  0  0  0  0  0  0  0
    2.2076   -1.1891    0.1464 O   0  0  0  0  0  0  0  0  0  0  0  0
    2.9015   -0.0597   -0.2544 C   0  0  0  0  0  0  0  0  0  0  0  0
    2.0350    0.9663   -0.9308 C   0  0  0  0  0  0  0  0  0  0  0  0
    0.8472    1.2091   -0.2192 O   0  0  0  0  0  0  0  0  0  0  0  0
   -3.4420   -0.6486   -0.8312 H   0  0  0  0  0  0  0  0  0  0  0  0
   -4.1979    0.9471   -0.7266 H   0  0  0  0  0  0  0  0  0  0  0  0
   -1.0402    0.4244    1.5931 H   0  0  0  0  0  0  0  0  0  0  0  0
   -1.4869   -1.8131   -0.2713 H   0  0  0  0  0  0  0  0  0  0  0  0
   -2.6111   -1.3611    0.9740 H   0  0  0  0  0  0  0  0  0  0  0  0
    0.1574   -0.5246   -1.0278 H   0  0  0  0  0  0  0  0  0  0  0  0
    0.5289   -1.6608    1.2773 H   0  0  0  0  0  0  0  0  0  0  0  0
    1.3783   -0.1236    1.6927 H   0  0  0  0  0  0  0  0  0  0  0  0
    3.6627   -0.3926   -0.9911 H   0  0  0  0  0  0  0  0  0  0  0  0
    3.4070    0.3686    0.6202 H   0  0  0  0  0  0  0  0  0  0  0  0
    1.7979    0.5897   -1.9480 H   0  0  0  0  0  0  0  0  0  0  0  0
    2.6466    1.8941   -1.0307 H   0  0  0  0  0  0  0  0  0  0  0  0
  1  2  1  0
  2  3  2  0
  2  4  1  0
  4  5  1  0
  4  6  1  0
  6  7  1  0
  7  8  1  0
  8  9  1  0
  9 10  1  0
 10 11  1  0
 11  6  1  0
  1 12  1  0
  1 13  1  0
  4 14  1  1
  5 15  1  0
  5 16  1  0
  6 17  1  6
  7 18  1  0
  7 19  1  0
  9 20  1  0
  9 21  1  0
 10 22  1  0
 10 23  1  0
M  END
$$$$

     RDKit          3D

 23 23  0  0  0  0  0  0  0  0999 V2000
   -2.7616    1.0051   -0.1584 N   0  0  0  0  0  0  0  0  0  0  0  0
   -2.2434   -0.2960    0.0235 C   0  0  0  0  0  0  0  0  0  0  0  0
   -2.7926   -1.2684   -0.5259 O   0  0  0  0  0  0  0  0  0  0  0  0
   -1.0519   -0.5000    0.8645 C   0  0  1  0  0  0  0  0  0  0  0  0
   -0.7084   -1.8968    0.9037 N   0  0  0  0  0  0  0  0  0  0  0  0
    0.1169    0.2902    0.3286 C   0  0  2  0  0  0  0  0  0  0  0  0
    0.3677   -0.1063   -1.0991 C   0  0  0  0  0  0  0  0  0  0  0  0
    1.5490    0.3992   -1.6093 O   0  0  0  0  0  0  0  0  0  0  0  0
    2.6027    0.1918   -0.7313 C   0  0  0  0  0  0  0  0  0  0  0  0
    2.2439    0.9134    0.5552 C   0  0  0  0  0  0  0  0  0  0  0  0
    1.2344    0.1203    1.1449 O   0  0  0  0  0  0  0  0  0  0  0  0
   -2.5808    1.7771    0.5086 H   0  0  0  0  0  0  0  0  0  0  0  0
   -3.3493    1.2066   -0.9919 H   0  0  0  0  0  0  0  0  0  0  0  0
   -1.2559   -0.1633    1.9087 H   0  0  0  0  0  0  0  0  0  0  0  0
   -1.3046   -2.4029    1.6008 H   0  0  0  0  0  0  0  0  0  0  0  0
   -0.8912   -2.3027   -0.0390 H   0  0  0  0  0  0  0  0  0  0  0  0
   -0.1623    1.3624    0.3605 H   0  0  0  0  0  0  0  0  0  0  0  0
    0.4094   -1.2046   -1.1632 H   0  0  0  0  0  0  0  0  0  0  0  0
   -0.4859    0.2266   -1.7009 H   0  0  0  0  0  0  0  0  0  0  0  0
    3.5299    0.6250   -1.1239 H   0  0  0  0  0  0  0  0  0  0  0  0
    2.6616   -0.8931   -0.5216 H   0  0  0  0  0  0  0  0  0  0  0  0
    3.1118    1.0318    1.1958 H   0  0  0  0  0  0  0  0  0  0  0  0
    1.7608    1.8844    0.2697 H   0  0  0  0  0  0  0  0  0  0  0  0
  1  2  1  0
  2  3  2  0
  2  4  1  0
  4  5  1  0
  4  6  1  0
  6  7  1  0
  7  8  1  0
  8  9  1  0
  9 10  1  0
 10 11  1  0
 11  6  1  0
  1 12  1  0
  1 13  1  0
  4 14  1  1
  5 15  1  0
  5 16  1  0
  6 17  1  6
  7 18  1  0
  7 19  1  0
  9 20  1  0
  9 21  1  0
 10 22  1  0
 10 23  1  0
M  END
$$$$

     RDKit          3D

 23 23  0  0  0  0  0  0  0  0999 V2000
   -2.8639    1.1443    0.0581 N   0  0  0  0  0  0  0  0  0  0  0  0
   -1.9306    0.2075    0.6037 C   0  0  0  0  0  0  0  0  0  0  0  0
   -1.6896    0.1869    1.8545 O   0  0  0  0  0  0  0  0  0  0  0  0
   -1.2214   -0.7569   -0.2489 C   0  0  1  0  0  0  0  0  0  0  0  0
   -1.6433   -0.5584   -1.6222 N   0  0  0  0  0  0  0  0  0  0  0  0
    0.2581   -0.5199   -0.1808 C   0  0  2  0  0  0  0  0  0  0  0  0
    0.7494   -0.6458    1.2677 C   0  0  0  0  0  0  0  0  0  0  0  0
    2.1060   -0.8896    1.1678 O   0  0  0  0  0  0  0  0  0  0  0  0
    2.7520   -0.1033    0.2454 C   0  0  0  0  0  0  0  0  0  0  0  0
    1.9713    0.9419   -0.4180 C   0  0  0  0  0  0  0  0  0  0  0  0
    0.6323    0.7489   -0.5669 O   0  0  0  0  0  0  0  0  0  0  0  0
   -3.8742    0.8873   -0.0478 H   0  0  0  0  0  0  0  0  0  0  0  0
   -2.4778    2.0835   -0.2223 H   0  0  0  0  0  0  0  0  0  0  0  0
   -1.4318   -1.7696    0.1242 H   0  0  0  0  0  0  0  0  0  0  0  0
   -2.0734   -1.4218   -2.0324 H   0  0  0  0  0  0  0  0  0  0  0  0
   -2.3547    0.1845   -1.6907 H   0  0  0  0  0  0  0  0  0  0  0  0
    0.8217   -1.2381   -0.8059 H   0  0  0  0  0  0  0  0  0  0  0  0
    0.2437   -1.4678    1.7697 H   0  0  0  0  0  0  0  0  0  0  0  0
    0.6417    0.3407    1.7878 H   0  0  0  0  0  0  0  0  0  0  0  0
    3.2603   -0.7948   -0.4790 H   0  0  0  0  0  0  0  0  0  0  0  0
    3.6109    0.3851    0.7963 H   0  0  0  0  0  0  0  0  0  0  0  0
    2.1112    1.9427    0.0889 H   0  0  0  0  0  0  0  0  0  0  0  0
    2.4021    1.1127   -1.4491 H   0  0  0  0  0  0  0  0  0  0  0  0
  1  2  1  0
  2  3  2  0
  2  4  1  0
  4  5  1  0
  4  6  1  0
  6  7  1  0
  7  8  1  0
  8  9  1  0
  9 10  1  0
 10 11  1  0
 11  6  1  0
  1 12  1  0
  1 13  1  0
  4 14  1  1
  5 15  1  0
  5 16  1  0
  6 17  1  6
  7 18  1  0
  7 19  1  0
  9 20  1  0
  9 21  1  0
 10 22  1  0
 10 23  1  0
M  END
$$$$

     RDKit          3D

 23 23  0  0  0  0  0  0  0  0999 V2000
   -2.6187    0.4675   -1.3152 N   0  0  0  0  0  0  0  0  0  0  0  0
   -2.2969   -0.5068   -0.3391 C   0  0  0  0  0  0  0  0  0  0  0  0
   -2.8784   -1.6139   -0.3948 O   0  0  0  0  0  0  0  0  0  0  0  0
   -1.3148   -0.2272    0.7022 C   0  0  1  0  0  0  0  0  0  0  0  0
   -1.1683   -1.3859    1.5724 N   0  0  0  0  0  0  0  0  0  0  0  0
    0.0451    0.1583    0.1746 C   0  0  2  0  0  0  0  0  0  0  0  0
    0.7131   -0.9227   -0.5987 C   0  0  0  0  0  0  0  0  0  0  0  0
    2.0725   -0.7032   -0.6382 O   0  0  0  0  0  0  0  0  0  0  0  0
    2.4370    0.6099   -0.4609 C   0  0  0  0  0  0  0  0  0  0  0  0
    1.9129    1.2317    0.7994 C   0  0  0  0  0  0  0  0  0  0  0  0
    0.8522    0.4633    1.2760 O   0  0  0  0  0  0  0  0  0  0  0  0
   -2.7352    0.2402   -2.3351 H   0  0  0  0  0  0  0  0  0  0  0  0
   -2.7626    1.4891   -1.0783 H   0  0  0  0  0  0  0  0  0  0  0  0
   -1.6645    0.6066    1.3476 H   0  0  0  0  0  0  0  0  0  0  0  0
   -0.2148   -1.2657    2.0284 H   0  0  0  0  0  0  0  0  0  0  0  0
   -1.1778   -2.2712    1.0201 H   0  0  0  0  0  0  0  0  0  0  0  0
   -0.0017    1.0683   -0.4410 H   0  0  0  0  0  0  0  0  0  0  0  0
    0.3547   -1.0317   -1.6307 H   0  0  0  0  0  0  0  0  0  0  0  0
    0.5479   -1.9237   -0.1108 H   0  0  0  0  0  0  0  0  0  0  0  0
    3.5552    0.6323   -0.3911 H   0  0  0  0  0  0  0  0  0  0  0  0
    2.1916    1.2603   -1.3449 H   0  0  0  0  0  0  0  0  0  0  0  0
    2.6736    1.3808    1.5773 H   0  0  0  0  0  0  0  0  0  0  0  0
    1.4781    2.2437    0.5810 H   0  0  0  0  0  0  0  0  0  0  0  0
  1  2  1  0
  2  3  2  0
  2  4  1  0
  4  5  1  0
  4  6  1  0
  6  7  1  0
  7  8  1  0
  8  9  1  0
  9 10  1  0
 10 11  1  0
 11  6  1  0
  1 12  1  0
  1 13  1  0
  4 14  1  1
  5 15  1  0
  5 16  1  0
  6 17  1  6
  7 18  1  0
  7 19  1  0
  9 20  1  0
  9 21  1  0
 10 22  1  0
 10 23  1  0
M  END
$$$$

     RDKit          3D

 23 23  0  0  0  0  0  0  0  0999 V2000
    2.5510   -0.7162    1.2130 N   0  0  0  0  0  0  0  0  0  0  0  0
    2.3573    0.2080    0.1539 C   0  0  0  0  0  0  0  0  0  0  0  0
    3.3187    0.4255   -0.6232 O   0  0  0  0  0  0  0  0  0  0  0  0
    1.0812    0.9144   -0.0641 C   0  0  1  0  0  0  0  0  0  0  0  0
    1.1770    1.7856   -1.2081 N   0  0  0  0  0  0  0  0  0  0  0  0
   -0.0803   -0.0247   -0.2864 C   0  0  2  0  0  0  0  0  0  0  0  0
   -1.3241    0.8116   -0.4225 C   0  0  0  0  0  0  0  0  0  0  0  0
   -2.1012    0.6686    0.7242 O   0  0  0  0  0  0  0  0  0  0  0  0
   -2.5990   -0.6355    0.7113 C   0  0  0  0  0  0  0  0  0  0  0  0
   -1.4357   -1.5947    0.6228 C   0  0  0  0  0  0  0  0  0  0  0  0
   -0.2285   -0.9047    0.7981 O   0  0  0  0  0  0  0  0  0  0  0  0
    2.6814   -0.3292    2.1718 H   0  0  0  0  0  0  0  0  0  0  0  0
    2.5635   -1.7359    1.0465 H   0  0  0  0  0  0  0  0  0  0  0  0
    0.8398    1.5792    0.8148 H   0  0  0  0  0  0  0  0  0  0  0  0
    1.8566    2.5441   -0.9958 H   0  0  0  0  0  0  0  0  0  0  0  0
    1.5758    1.2038   -2.0052 H   0  0  0  0  0  0  0  0  0  0  0  0
    0.1389   -0.6228   -1.1944 H   0  0  0  0  0  0  0  0  0  0  0  0
   -1.0792    1.8997   -0.5597 H   0  0  0  0  0  0  0  0  0  0  0  0
   -1.8678    0.4834   -1.3299 H   0  0  0  0  0  0  0  0  0  0  0  0
   -3.2452   -0.6994   -0.2106 H   0  0  0  0  0  0  0  0  0  0  0  0
   -3.2183   -0.8236    1.5983 H   0  0  0  0  0  0  0  0  0  0  0  0
   -1.4564   -2.0898   -0.3819 H   0  0  0  0  0  0  0  0  0  0  0  0
   -1.5055   -2.3474    1.4460 H   0  0  0  0  0  0  0  0  0  0  0  0
  1  2  1  0
  2  3  2  0
  2  4  1  0
  4  5  1  0
  4  6  1  0
  6  7  1  0
  7  8  1  0
  8  9  1  0
  9 10  1  0
 10 11  1  0
 11  6  1  0
  1 12  1  0
  1 13  1  0
  4 14  1  1
  5 15  1  0
  5 16  1  0
  6 17  1  6
  7 18  1  0
  7 19  1  0
  9 20  1  0
  9 21  1  0
 10 22  1  0
 10 23  1  0
M  END
$$$$

     RDKit          3D

 23 23  0  0  0  0  0  0  0  0999 V2000
    2.7557   -1.0612   -0.1651 N   0  0  0  0  0  0  0  0  0  0  0  0
    1.6882   -0.5479    0.6042 C   0  0  0  0  0  0  0  0  0  0  0  0
    1.2402   -1.2702    1.5290 O   0  0  0  0  0  0  0  0  0  0  0  0
    1.1597    0.7820    0.2944 C   0  0  1  0  0  0  0  0  0  0  0  0
    1.8593    1.3701   -0.8032 N   0  0  0  0  0  0  0  0  0  0  0  0
   -0.3556    0.7614    0.0527 C   0  0  2  0  0  0  0  0  0  0  0  0
   -1.1094    0.3614    1.2516 C   0  0  0  0  0  0  0  0  0  0  0  0
   -1.8229   -0.8013    1.1919 O   0  0  0  0  0  0  0  0  0  0  0  0
   -2.2926   -1.1694   -0.0366 C   0  0  0  0  0  0  0  0  0  0  0  0
   -2.0101   -0.1692   -1.1201 C   0  0  0  0  0  0  0  0  0  0  0  0
   -0.6096    0.0215   -1.0878 O   0  0  0  0  0  0  0  0  0  0  0  0
    2.9087   -2.0993   -0.3168 H   0  0  0  0  0  0  0  0  0  0  0  0
    3.4772   -0.4585   -0.6441 H   0  0  0  0  0  0  0  0  0  0  0  0
    1.3588    1.4302    1.1947 H   0  0  0  0  0  0  0  0  0  0  0  0
    2.5324    2.1040   -0.5669 H   0  0  0  0  0  0  0  0  0  0  0  0
    2.1081    0.7386   -1.5686 H   0  0  0  0  0  0  0  0  0  0  0  0
   -0.6068    1.8290   -0.2152 H   0  0  0  0  0  0  0  0  0  0  0  0
   -0.4047    0.2819    2.1200 H   0  0  0  0  0  0  0  0  0  0  0  0
   -1.8301    1.1751    1.5623 H   0  0  0  0  0  0  0  0  0  0  0  0
   -1.7754   -2.1286   -0.3215 H   0  0  0  0  0  0  0  0  0  0  0  0
   -3.3819   -1.3967   -0.0044 H   0  0  0  0  0  0  0  0  0  0  0  0
   -2.5282    0.7843   -0.8668 H   0  0  0  0  0  0  0  0  0  0  0  0
   -2.3611   -0.5374   -2.0837 H   0  0  0  0  0  0  0  0  0  0  0  0
  1  2  1  0
  2  3  2  0
  2  4  1  0
  4  5  1  0
  4  6  1  0
  6  7  1  0
  7  8  1  0
  8  9  1  0
  9 10  1  0
 10 11  1  0
 11  6  1  0
  1 12  1  0
  1 13  1  0
  4 14  1  1
  5 15  1  0
  5 16  1  0
  6 17  1  6
  7 18  1  0
  7 19  1  0
  9 20  1  0
  9 21  1  0
 10 22  1  0
 10 23  1  0
M  END
$$$$

     RDKit          3D

 23 23  0  0  0  0  0  0  0  0999 V2000
   -2.8375   -1.4830   -0.5319 N   0  0  0  0  0  0  0  0  0  0  0  0
   -1.9339   -0.4865   -0.9261 C   0  0  0  0  0  0  0  0  0  0  0  0
   -1.6021   -0.3471   -2.1345 O   0  0  0  0  0  0  0  0  0  0  0  0
   -1.3115    0.4641    0.0435 C   0  0  1  0  0  0  0  0  0  0  0  0
   -1.7318    0.2487    1.3903 N   0  0  0  0  0  0  0  0  0  0  0  0
    0.1745    0.3998   -0.1599 C   0  0  2  0  0  0  0  0  0  0  0  0
    0.7662   -0.9416    0.1370 C   0  0  0  0  0  0  0  0  0  0  0  0
    2.0408   -0.9724   -0.3900 O   0  0  0  0  0  0  0  0  0  0  0  0
    2.8296    0.0916   -0.0553 C   0  0  0  0  0  0  0  0  0  0  0  0
    2.1447    1.4096   -0.0020 C   0  0  0  0  0  0  0  0  0  0  0  0
    0.8683    1.3456    0.5867 O   0  0  0  0  0  0  0  0  0  0  0  0
   -3.8409   -1.3919   -0.8299 H   0  0  0  0  0  0  0  0  0  0  0  0
   -2.4985   -2.2953    0.0489 H   0  0  0  0  0  0  0  0  0  0  0  0
   -1.6337    1.4875   -0.2769 H   0  0  0  0  0  0  0  0  0  0  0  0
   -1.9781    1.1456    1.8542 H   0  0  0  0  0  0  0  0  0  0  0  0
   -2.6140   -0.3186    1.3604 H   0  0  0  0  0  0  0  0  0  0  0  0
    0.3694    0.6266   -1.2295 H   0  0  0  0  0  0  0  0  0  0  0  0
    0.8616   -1.1341    1.2321 H   0  0  0  0  0  0  0  0  0  0  0  0
    0.1993   -1.7860   -0.2795 H   0  0  0  0  0  0  0  0  0  0  0  0
    3.6345    0.1667   -0.8440 H   0  0  0  0  0  0  0  0  0  0  0  0
    3.3487   -0.1123    0.9013 H   0  0  0  0  0  0  0  0  0  0  0  0
    2.7905    2.1386    0.5022 H   0  0  0  0  0  0  0  0  0  0  0  0
    1.9539    1.7444   -1.0627 H   0  0  0  0  0  0  0  0  0  0  0  0
  1  2  1  0
  2  3  2  0
  2  4  1  0
  4  5  1  0
  4  6  1  0
  6  7  1  0
  7  8  1  0
  8  9  1  0
  9 10  1  0
 10 11  1  0
 11  6  1  0
  1 12  1  0
  1 13  1  0
  4 14  1  6
  5 15  1  0
  5 16  1  0
  6 17  1  6
  7 18  1  0
  7 19  1  0
  9 20  1  0
  9 21  1  0
 10 22  1  0
 10 23  1  0
M  END
$$$$

     RDKit          3D

 23 23  0  0  0  0  0  0  0  0999 V2000
    3.3750    0.0035    0.0648 N   0  0  0  0  0  0  0  0  0  0  0  0
    2.0625   -0.4540    0.3566 C   0  0  0  0  0  0  0  0  0  0  0  0
    1.9034   -1.6600    0.6770 O   0  0  0  0  0  0  0  0  0  0  0  0
    0.8694    0.4044    0.3062 C   0  0  1  0  0  0  0  0  0  0  0  0
    1.1596    1.7597   -0.0693 N   0  0  0  0  0  0  0  0  0  0  0  0
   -0.1521   -0.1262   -0.7051 C   0  0  2  0  0  0  0  0  0  0  0  0
   -1.2503    0.8666   -0.7871 C   0  0  0  0  0  0  0  0  0  0  0  0
   -2.5119    0.2538   -0.9395 O   0  0  0  0  0  0  0  0  0  0  0  0
   -2.6557   -0.5233    0.2232 C   0  0  0  0  0  0  0  0  0  0  0  0
   -1.6942   -1.6538    0.1329 C   0  0  0  0  0  0  0  0  0  0  0  0
   -0.5111   -1.4124   -0.4554 O   0  0  0  0  0  0  0  0  0  0  0  0
    4.2440   -0.3631    0.5088 H   0  0  0  0  0  0  0  0  0  0  0  0
    3.4889    0.7602   -0.6431 H   0  0  0  0  0  0  0  0  0  0  0  0
    0.3273    0.4406    1.2907 H   0  0  0  0  0  0  0  0  0  0  0  0
    1.4219    1.8626   -1.0732 H   0  0  0  0  0  0  0  0  0  0  0  0
    1.8107    2.2440    0.5753 H   0  0  0  0  0  0  0  0  0  0  0  0
    0.3951   -0.1093   -1.6899 H   0  0  0  0  0  0  0  0  0  0  0  0
   -1.3127    1.4451    0.1583 H   0  0  0  0  0  0  0  0  0  0  0  0
   -1.1072    1.6216   -1.5975 H   0  0  0  0  0  0  0  0  0  0  0  0
   -3.6898   -0.9402    0.2711 H   0  0  0  0  0  0  0  0  0  0  0  0
   -2.4455    0.1409    1.0819 H   0  0  0  0  0  0  0  0  0  0  0  0
   -2.2053   -2.4944   -0.4100 H   0  0  0  0  0  0  0  0  0  0  0  0
   -1.5220   -2.0663    1.1700 H   0  0  0  0  0  0  0  0  0  0  0  0
  1  2  1  0
  2  3  2  0
  2  4  1  0
  4  5  1  0
  4  6  1  0
  6  7  1  0
  7  8  1  0
  8  9  1  0
  9 10  1  0
 10 11  1  0
 11  6  1  0
  1 12  1  0
  1 13  1  0
  4 14  1  1
  5 15  1  0
  5 16  1  0
  6 17  1  6
  7 18  1  0
  7 19  1  0
  9 20  1  0
  9 21  1  0
 10 22  1  0
 10 23  1  0
M  END
$$$$
