
     RDKit          3D

 31 31  0  0  0  0  0  0  0  0999 V2000
   -3.1302   -0.9266   -0.9777 C   0  0  0  0  0  0  0  0  0  0  0  0
   -1.8936   -0.3794   -0.5258 N   0  0  0  0  0  0  0  0  0  0  0  0
   -0.9590   -0.0696   -1.5794 C   0  0  0  0  0  0  0  0  0  0  0  0
    0.4592   -0.0970   -1.0525 C   0  0  0  0  0  0  0  0  0  0  0  0
    0.5020    0.6363    0.2713 C   0  0  0  0  0  0  0  0  0  0  0  0
   -0.0619    1.9993    0.1239 C   0  0  0  0  0  0  0  0  0  0  0  0
    0.5345    2.9328   -0.7959 N   0  0  0  0  0  0  0  0  0  0  0  0
   -1.0532    2.3366    0.7973 O   0  0  0  0  0  0  0  0  0  0  0  0
    1.8579    0.7355    0.8314 C   0  0  0  0  0  0  0  0  0  0  0  0
    2.3231    1.8703    1.0066 O   0  0  0  0  0  0  0  0  0  0  0  0
    2.7183   -0.4274    1.2051 C   0  0  0  0  0  0  0  0  0  0  0  0
    2.0694   -1.6866    0.9806 N   0  0  0  0  0  0  0  0  0  0  0  0
   -0.3502   -0.1114    1.2780 C   0  0  0  0  0  0  0  0  0  0  0  0
   -1.2962   -1.0752    0.5790 C   0  0  0  0  0  0  0  0  0  0  0  0
   -3.9435   -0.2304   -0.6149 H   0  0  0  0  0  0  0  0  0  0  0  0
   -3.3755   -1.9154   -0.5899 H   0  0  0  0  0  0  0  0  0  0  0  0
   -3.1751   -0.9621   -2.0869 H   0  0  0  0  0  0  0  0  0  0  0  0
   -1.0603   -0.8045   -2.4108 H   0  0  0  0  0  0  0  0  0  0  0  0
   -1.2142    0.9276   -1.9959 H   0  0  0  0  0  0  0  0  0  0  0  0
    0.6812   -1.1590   -0.8512 H   0  0  0  0  0  0  0  0  0  0  0  0
    1.1185    0.3404   -1.7989 H   0  0  0  0  0  0  0  0  0  0  0  0
    1.5607    2.9012   -0.9472 H   0  0  0  0  0  0  0  0  0  0  0  0
   -0.0300    3.6232   -1.3010 H   0  0  0  0  0  0  0  0  0  0  0  0
    3.0031   -0.2756    2.2740 H   0  0  0  0  0  0  0  0  0  0  0  0
    3.6393   -0.3779    0.6241 H   0  0  0  0  0  0  0  0  0  0  0  0
    2.5513   -2.2068    0.2272 H   0  0  0  0  0  0  0  0  0  0  0  0
    2.1847   -2.2772    1.8538 H   0  0  0  0  0  0  0  0  0  0  0  0
   -1.0263    0.6058    1.8305 H   0  0  0  0  0  0  0  0  0  0  0  0
    0.2551   -0.5954    2.0571 H   0  0  0  0  0  0  0  0  0  0  0  0
   -0.7852   -2.0127    0.2921 H   0  0  0  0  0  0  0  0  0  0  0  0
   -2.1040   -1.3189    1.2960 H   0  0  0  0  0  0  0  0  0  0  0  0
  1  2  1  0
  2  3  1  0
  3  4  1  0
  4  5  1  0
  5  6  1  0
  6  7  1  0
  6  8  2  0
  5  9  1  0
  9 10  2  0
  9 11  1  0
 11 12  1  0
  5 13  1  0
 13 14  1  0
 14  2  1  0
  1 15  1  0
  1 16  1  0
  1 17  1  0
  3 18  1  0
  3 19  1  0
  4 20  1  0
  4 21  1  0
  7 22  1  0
  7 23  1  0
 11 24  1  0
 11 25  1  0
 12 26  1  0
 12 27  1  0
 13 28  1  0
 13 29  1  0
 14 30  1  0
 14 31  1  0
M  END
$$$$

     RDKit          3D

 31 31  0  0  0  0  0  0  0  0999 V2000
    3.6401    0.9812    0.0291 C   0  0  0  0  0  0  0  0  0  0  0  0
    2.2205    1.0408    0.1600 N   0  0  0  0  0  0  0  0  0  0  0  0
    1.6577    0.1841    1.1419 C   0  0  0  0  0  0  0  0  0  0  0  0
    0.7196   -0.8598    0.6021 C   0  0  0  0  0  0  0  0  0  0  0  0
   -0.3672   -0.2811   -0.2651 C   0  0  0  0  0  0  0  0  0  0  0  0
   -0.5348   -1.2099   -1.4352 C   0  0  0  0  0  0  0  0  0  0  0  0
   -0.8992   -2.5410   -1.1344 N   0  0  0  0  0  0  0  0  0  0  0  0
   -0.3530   -0.7895   -2.5913 O   0  0  0  0  0  0  0  0  0  0  0  0
   -1.6751   -0.2498    0.4348 C   0  0  0  0  0  0  0  0  0  0  0  0
   -1.7843   -0.6575    1.5688 O   0  0  0  0  0  0  0  0  0  0  0  0
   -2.8497    0.2937   -0.2875 C   0  0  0  0  0  0  0  0  0  0  0  0
   -4.0463    0.2541    0.5315 N   0  0  0  0  0  0  0  0  0  0  0  0
    0.0176    1.0844   -0.7639 C   0  0  0  0  0  0  0  0  0  0  0  0
    1.5025    1.1401   -1.0649 C   0  0  0  0  0  0  0  0  0  0  0  0
    4.1552    0.4741    0.8475 H   0  0  0  0  0  0  0  0  0  0  0  0
    4.0078    2.0479   -0.0294 H   0  0  0  0  0  0  0  0  0  0  0  0
    3.8987    0.5523   -0.9779 H   0  0  0  0  0  0  0  0  0  0  0  0
    1.0501    0.8214    1.8475 H   0  0  0  0  0  0  0  0  0  0  0  0
    2.4093   -0.3400    1.7632 H   0  0  0  0  0  0  0  0  0  0  0  0
    1.2605   -1.7022    0.1095 H   0  0  0  0  0  0  0  0  0  0  0  0
    0.2089   -1.3175    1.4880 H   0  0  0  0  0  0  0  0  0  0  0  0
   -1.6918   -2.9705   -1.6551 H   0  0  0  0  0  0  0  0  0  0  0  0
   -0.4134   -3.1067   -0.4201 H   0  0  0  0  0  0  0  0  0  0  0  0
   -2.9958   -0.1930   -1.2760 H   0  0  0  0  0  0  0  0  0  0  0  0
   -2.6392    1.3669   -0.5007 H   0  0  0  0  0  0  0  0  0  0  0  0
   -4.5138   -0.6899    0.4031 H   0  0  0  0  0  0  0  0  0  0  0  0
   -4.6756    1.0151    0.1995 H   0  0  0  0  0  0  0  0  0  0  0  0
   -0.2007    1.8264    0.0057 H   0  0  0  0  0  0  0  0  0  0  0  0
   -0.5996    1.3017   -1.6487 H   0  0  0  0  0  0  0  0  0  0  0  0
    1.7927    0.3809   -1.8270 H   0  0  0  0  0  0  0  0  0  0  0  0
    1.6983    2.1432   -1.5071 H   0  0  0  0  0  0  0  0  0  0  0  0
  1  2  1  0
  2  3  1  0
  3  4  1  0
  4  5  1  0
  5  6  1  0
  6  7  1  0
  6  8  2  0
  5  9  1  0
  9 10  2  0
  9 11  1  0
 11 12  1  0
  5 13  1  0
 13 14  1  0
 14  2  1  0
  1 15  1  0
  1 16  1  0
  1 17  1  0
  3 18  1  0
  3 19  1  0
  4 20  1  0
  4 21  1  0
  7 22  1  0
  7 23  1  0
 11 24  1  0
 11 25  1  0
 12 26  1  0
 12 27  1  0
 13 28  1  0
 13 29  1  0
 14 30  1  0
 14 31  1  0
M  END
$$$$

     RDKit          3D

 31 31  0  0  0  0  0  0  0  0999 V2000
    3.6084   -0.2727   -0.6716 C   0  0  0  0  0  0  0  0  0  0  0  0
    2.1792   -0.4976   -0.8091 N   0  0  0  0  0  0  0  0  0  0  0  0
    1.6073   -1.2367    0.2610 C   0  0  0  0  0  0  0  0  0  0  0  0
    0.6941   -0.4055    1.1039 C   0  0  0  0  0  0  0  0  0  0  0  0
   -0.4309    0.2113    0.3472 C   0  0  0  0  0  0  0  0  0  0  0  0
   -0.9894    1.3163    1.2046 C   0  0  0  0  0  0  0  0  0  0  0  0
   -1.4924    0.9104    2.4781 N   0  0  0  0  0  0  0  0  0  0  0  0
   -1.0039    2.5102    0.8096 O   0  0  0  0  0  0  0  0  0  0  0  0
   -1.5421   -0.7118    0.0632 C   0  0  0  0  0  0  0  0  0  0  0  0
   -1.5474   -1.8784    0.4132 O   0  0  0  0  0  0  0  0  0  0  0  0
   -2.7135   -0.1994   -0.6852 C   0  0  0  0  0  0  0  0  0  0  0  0
   -3.6970   -1.2223   -0.8742 N   0  0  0  0  0  0  0  0  0  0  0  0
    0.0712    0.7637   -0.9568 C   0  0  0  0  0  0  0  0  0  0  0  0
    1.5685    0.7786   -1.0594 C   0  0  0  0  0  0  0  0  0  0  0  0
    4.0941   -1.0184   -0.0266 H   0  0  0  0  0  0  0  0  0  0  0  0
    3.8361    0.7723   -0.3633 H   0  0  0  0  0  0  0  0  0  0  0  0
    4.0249   -0.3695   -1.7163 H   0  0  0  0  0  0  0  0  0  0  0  0
    2.4508   -1.5714    0.9320 H   0  0  0  0  0  0  0  0  0  0  0  0
    1.1137   -2.1936   -0.0546 H   0  0  0  0  0  0  0  0  0  0  0  0
    1.3173    0.4427    1.5153 H   0  0  0  0  0  0  0  0  0  0  0  0
    0.3592   -0.9735    1.9969 H   0  0  0  0  0  0  0  0  0  0  0  0
   -1.9716   -0.0207    2.5848 H   0  0  0  0  0  0  0  0  0  0  0  0
   -1.4095    1.5009    3.3329 H   0  0  0  0  0  0  0  0  0  0  0  0
   -2.3522    0.2019   -1.6625 H   0  0  0  0  0  0  0  0  0  0  0  0
   -3.2013    0.6607   -0.1758 H   0  0  0  0  0  0  0  0  0  0  0  0
   -3.2630   -2.1005   -1.2350 H   0  0  0  0  0  0  0  0  0  0  0  0
   -4.5333   -0.9240   -1.3806 H   0  0  0  0  0  0  0  0  0  0  0  0
   -0.2794    1.8065   -1.0996 H   0  0  0  0  0  0  0  0  0  0  0  0
   -0.3185    0.1863   -1.8285 H   0  0  0  0  0  0  0  0  0  0  0  0
    1.8325    1.0933   -2.0868 H   0  0  0  0  0  0  0  0  0  0  0  0
    1.9883    1.5117   -0.3569 H   0  0  0  0  0  0  0  0  0  0  0  0
  1  2  1  0
  2  3  1  0
  3  4  1  0
  4  5  1  0
  5  6  1  0
  6  7  1  0
  6  8  2  0
  5  9  1  0
  9 10  2  0
  9 11  1  0
 11 12  1  0
  5 13  1  0
 13 14  1  0
 14  2  1  0
  1 15  1  0
  1 16  1  0
  1 17  1  0
  3 18  1  0
  3 19  1  0
  4 20  1  0
  4 21  1  0
  7 22  1  0
  7 23  1  0
 11 24  1  0
 11 25  1  0
 12 26  1  0
 12 27  1  0
 13 28  1  0
 13 29  1  0
 14 30  1  0
 14 31  1  0
M  END
$$$$

     RDKit          3D

 31 31  0  0  0  0  0  0  0  0999 V2000
   -3.4576    0.3433   -0.6114 C   0  0  0  0  0  0  0  0  0  0  0  0
   -2.1318   -0.1525   -0.5468 N   0  0  0  0  0  0  0  0  0  0  0  0
   -1.1451    0.8065   -1.0720 C   0  0  0  0  0  0  0  0  0  0  0  0
    0.0431   -0.0003   -1.4438 C   0  0  0  0  0  0  0  0  0  0  0  0
    0.6498   -0.6165   -0.2236 C   0  0  0  0  0  0  0  0  0  0  0  0
    1.3031   -1.8957   -0.6632 C   0  0  0  0  0  0  0  0  0  0  0  0
    1.9625   -2.6936    0.2988 N   0  0  0  0  0  0  0  0  0  0  0  0
    1.2574   -2.2387   -1.8642 O   0  0  0  0  0  0  0  0  0  0  0  0
    1.7605    0.2368    0.3287 C   0  0  0  0  0  0  0  0  0  0  0  0
    2.8843   -0.2117    0.4284 O   0  0  0  0  0  0  0  0  0  0  0  0
    1.5415    1.6372    0.7694 C   0  0  0  0  0  0  0  0  0  0  0  0
    2.7584    2.2257    1.3001 N   0  0  0  0  0  0  0  0  0  0  0  0
   -0.3183   -1.0051    0.8448 C   0  0  0  0  0  0  0  0  0  0  0  0
   -1.6690   -0.4205    0.7962 C   0  0  0  0  0  0  0  0  0  0  0  0
   -3.8716    0.1081   -1.6278 H   0  0  0  0  0  0  0  0  0  0  0  0
   -4.1269   -0.0864    0.1351 H   0  0  0  0  0  0  0  0  0  0  0  0
   -3.5182    1.4585   -0.5210 H   0  0  0  0  0  0  0  0  0  0  0  0
   -0.9902    1.5345   -0.2502 H   0  0  0  0  0  0  0  0  0  0  0  0
   -1.5692    1.3740   -1.9242 H   0  0  0  0  0  0  0  0  0  0  0  0
    0.7996    0.5309   -2.0366 H   0  0  0  0  0  0  0  0  0  0  0  0
   -0.3196   -0.8430   -2.0932 H   0  0  0  0  0  0  0  0  0  0  0  0
    1.9492   -2.4791    1.3068 H   0  0  0  0  0  0  0  0  0  0  0  0
    2.4898   -3.5391   -0.0075 H   0  0  0  0  0  0  0  0  0  0  0  0
    0.7749    1.6207    1.5608 H   0  0  0  0  0  0  0  0  0  0  0  0
    1.2607    2.3003   -0.0854 H   0  0  0  0  0  0  0  0  0  0  0  0
    3.5385    2.1550    0.6101 H   0  0  0  0  0  0  0  0  0  0  0  0
    2.5557    3.2627    1.4036 H   0  0  0  0  0  0  0  0  0  0  0  0
    0.1424   -0.7023    1.8330 H   0  0  0  0  0  0  0  0  0  0  0  0
   -0.4270   -2.1179    0.9424 H   0  0  0  0  0  0  0  0  0  0  0  0
   -2.4145   -1.1044    1.2582 H   0  0  0  0  0  0  0  0  0  0  0  0
   -1.7123    0.5128    1.4280 H   0  0  0  0  0  0  0  0  0  0  0  0
  1  2  1  0
  2  3  1  0
  3  4  1  0
  4  5  1  0
  5  6  1  0
  6  7  1  0
  6  8  2  0
  5  9  1  0
  9 10  2  0
  9 11  1  0
 11 12  1  0
  5 13  1  0
 13 14  1  0
 14  2  1  0
  1 15  1  0
  1 16  1  0
  1 17  1  0
  3 18  1  0
  3 19  1  0
  4 20  1  0
  4 21  1  0
  7 22  1  0
  7 23  1  0
 11 24  1  0
 11 25  1  0
 12 26  1  0
 12 27  1  0
 13 28  1  0
 13 29  1  0
 14 30  1  0
 14 31  1  0
M  END
$$$$

     RDKit          3D

 31 31  0  0  0  0  0  0  0  0999 V2000
    3.4725   -0.2636    0.2246 C   0  0  0  0  0  0  0  0  0  0  0  0
    2.1595   -0.7421   -0.0530 N   0  0  0  0  0  0  0  0  0  0  0  0
    1.2471   -0.6992    1.0403 C   0  0  0  0  0  0  0  0  0  0  0  0
    0.3011    0.4981    0.9652 C   0  0  0  0  0  0  0  0  0  0  0  0
   -0.5618    0.4559   -0.2646 C   0  0  0  0  0  0  0  0  0  0  0  0
   -0.6258    1.8297   -0.8534 C   0  0  0  0  0  0  0  0  0  0  0  0
   -1.1679    2.8457   -0.0087 N   0  0  0  0  0  0  0  0  0  0  0  0
   -0.2317    2.0793   -2.0101 O   0  0  0  0  0  0  0  0  0  0  0  0
   -1.9311   -0.0148    0.0001 C   0  0  0  0  0  0  0  0  0  0  0  0
   -2.8964    0.6903   -0.2376 O   0  0  0  0  0  0  0  0  0  0  0  0
   -2.1713   -1.3688    0.5668 C   0  0  0  0  0  0  0  0  0  0  0  0
   -3.5963   -1.6170    0.7401 N   0  0  0  0  0  0  0  0  0  0  0  0
    0.1397   -0.4293   -1.2755 C   0  0  0  0  0  0  0  0  0  0  0  0
    1.6278   -0.1611   -1.2683 C   0  0  0  0  0  0  0  0  0  0  0  0
    3.4434    0.4884    1.0260 H   0  0  0  0  0  0  0  0  0  0  0  0
    3.9711    0.1161   -0.7046 H   0  0  0  0  0  0  0  0  0  0  0  0
    4.0931   -1.1592    0.5238 H   0  0  0  0  0  0  0  0  0  0  0  0
    1.7817   -0.5949    2.0174 H   0  0  0  0  0  0  0  0  0  0  0  0
    0.6358   -1.6198    1.1342 H   0  0  0  0  0  0  0  0  0  0  0  0
    0.9589    1.3888    0.8946 H   0  0  0  0  0  0  0  0  0  0  0  0
   -0.2622    0.5825    1.8990 H   0  0  0  0  0  0  0  0  0  0  0  0
   -0.9045    3.8488   -0.1156 H   0  0  0  0  0  0  0  0  0  0  0  0
   -1.8524    2.6342    0.7549 H   0  0  0  0  0  0  0  0  0  0  0  0
   -1.7119   -1.4199    1.5844 H   0  0  0  0  0  0  0  0  0  0  0  0
   -1.7794   -2.1266   -0.1197 H   0  0  0  0  0  0  0  0  0  0  0  0
   -4.0710   -1.0450   -0.0125 H   0  0  0  0  0  0  0  0  0  0  0  0
   -3.7628   -2.6325    0.6216 H   0  0  0  0  0  0  0  0  0  0  0  0
   -0.0089   -1.4769   -0.9778 H   0  0  0  0  0  0  0  0  0  0  0  0
   -0.2413   -0.2653   -2.3058 H   0  0  0  0  0  0  0  0  0  0  0  0
    1.8705    0.9021   -1.3882 H   0  0  0  0  0  0  0  0  0  0  0  0
    2.0746   -0.7236   -2.1128 H   0  0  0  0  0  0  0  0  0  0  0  0
  1  2  1  0
  2  3  1  0
  3  4  1  0
  4  5  1  0
  5  6  1  0
  6  7  1  0
  6  8  2  0
  5  9  1  0
  9 10  2  0
  9 11  1  0
 11 12  1  0
  5 13  1  0
 13 14  1  0
 14  2  1  0
  1 15  1  0
  1 16  1  0
  1 17  1  0
  3 18  1  0
  3 19  1  0
  4 20  1  0
  4 21  1  0
  7 22  1  0
  7 23  1  0
 11 24  1  0
 11 25  1  0
 12 26  1  0
 12 27  1  0
 13 28  1  0
 13 29  1  0
 14 30  1  0
 14 31  1  0
M  END
$$$$

     RDKit          3D

 31 31  0  0  0  0  0  0  0  0999 V2000
    3.0031   -0.5737   -0.3346 C   0  0  0  0  0  0  0  0  0  0  0  0
    2.1358    0.2253    0.4690 N   0  0  0  0  0  0  0  0  0  0  0  0
    1.3024   -0.5544    1.3308 C   0  0  0  0  0  0  0  0  0  0  0  0
   -0.1569   -0.0954    1.2156 C   0  0  0  0  0  0  0  0  0  0  0  0
   -0.6099   -0.3136   -0.1920 C   0  0  0  0  0  0  0  0  0  0  0  0
   -0.3955   -1.7498   -0.4876 C   0  0  0  0  0  0  0  0  0  0  0  0
   -1.0278   -2.7493    0.2980 N   0  0  0  0  0  0  0  0  0  0  0  0
    0.3474   -2.0746   -1.4359 O   0  0  0  0  0  0  0  0  0  0  0  0
   -1.9843    0.0537   -0.4913 C   0  0  0  0  0  0  0  0  0  0  0  0
   -2.7296   -0.8238   -0.8991 O   0  0  0  0  0  0  0  0  0  0  0  0
   -2.5943    1.3932   -0.3559 C   0  0  0  0  0  0  0  0  0  0  0  0
   -1.7286    2.4153    0.1235 N   0  0  0  0  0  0  0  0  0  0  0  0
    0.3208    0.4696   -1.0968 C   0  0  0  0  0  0  0  0  0  0  0  0
    1.4282    1.1449   -0.3607 C   0  0  0  0  0  0  0  0  0  0  0  0
    2.6734   -0.5804   -1.3851 H   0  0  0  0  0  0  0  0  0  0  0  0
    4.0165   -0.0913   -0.3364 H   0  0  0  0  0  0  0  0  0  0  0  0
    3.1295   -1.6117    0.0169 H   0  0  0  0  0  0  0  0  0  0  0  0
    1.3735   -1.6457    1.1387 H   0  0  0  0  0  0  0  0  0  0  0  0
    1.5935   -0.3291    2.3801 H   0  0  0  0  0  0  0  0  0  0  0  0
   -0.7118   -0.7419    1.9266 H   0  0  0  0  0  0  0  0  0  0  0  0
   -0.2087    0.9196    1.5867 H   0  0  0  0  0  0  0  0  0  0  0  0
   -1.1442   -3.7306   -0.0558 H   0  0  0  0  0  0  0  0  0  0  0  0
   -1.4076   -2.5720    1.2562 H   0  0  0  0  0  0  0  0  0  0  0  0
   -2.9569    1.7219   -1.3546 H   0  0  0  0  0  0  0  0  0  0  0  0
   -3.5210    1.3349    0.2807 H   0  0  0  0  0  0  0  0  0  0  0  0
   -2.0108    2.6657    1.0936 H   0  0  0  0  0  0  0  0  0  0  0  0
   -1.6927    3.2476   -0.4693 H   0  0  0  0  0  0  0  0  0  0  0  0
   -0.2845    1.2435   -1.6385 H   0  0  0  0  0  0  0  0  0  0  0  0
    0.7214   -0.1833   -1.9213 H   0  0  0  0  0  0  0  0  0  0  0  0
    2.0930    1.6054   -1.1210 H   0  0  0  0  0  0  0  0  0  0  0  0
    1.0266    1.9799    0.2366 H   0  0  0  0  0  0  0  0  0  0  0  0
  1  2  1  0
  2  3  1  0
  3  4  1  0
  4  5  1  0
  5  6  1  0
  6  7  1  0
  6  8  2  0
  5  9  1  0
  9 10  2  0
  9 11  1  0
 11 12  1  0
  5 13  1  0
 13 14  1  0
 14  2  1  0
  1 15  1  0
  1 16  1  0
  1 17  1  0
  3 18  1  0
  3 19  1  0
  4 20  1  0
  4 21  1  0
  7 22  1  0
  7 23  1  0
 11 24  1  0
 11 25  1  0
 12 26  1  0
 12 27  1  0
 13 28  1  0
 13 29  1  0
 14 30  1  0
 14 31  1  0
M  END
$$$$

     RDKit          3D

 31 31  0  0  0  0  0  0  0  0999 V2000
    3.2233    0.4307    0.7432 C   0  0  0  0  0  0  0  0  0  0  0  0
    2.4469   -0.6080    0.1339 N   0  0  0  0  0  0  0  0  0  0  0  0
    1.6481   -1.3741    1.0096 C   0  0  0  0  0  0  0  0  0  0  0  0
    0.2356   -0.9715    1.1548 C   0  0  0  0  0  0  0  0  0  0  0  0
   -0.3780   -0.2500    0.0240 C   0  0  0  0  0  0  0  0  0  0  0  0
   -1.1475   -1.2108   -0.8478 C   0  0  0  0  0  0  0  0  0  0  0  0
   -2.2139   -1.9159   -0.2174 N   0  0  0  0  0  0  0  0  0  0  0  0
   -0.8853   -1.3922   -2.0442 O   0  0  0  0  0  0  0  0  0  0  0  0
   -1.3838    0.7438    0.5031 C   0  0  0  0  0  0  0  0  0  0  0  0
   -1.6002    0.8700    1.6902 O   0  0  0  0  0  0  0  0  0  0  0  0
   -2.0808    1.5446   -0.5512 C   0  0  0  0  0  0  0  0  0  0  0  0
   -3.0275    2.4719   -0.0000 N   0  0  0  0  0  0  0  0  0  0  0  0
    0.5852    0.5000   -0.8549 C   0  0  0  0  0  0  0  0  0  0  0  0
    1.8575   -0.2571   -1.1113 C   0  0  0  0  0  0  0  0  0  0  0  0
    3.2494    0.4089    1.8317 H   0  0  0  0  0  0  0  0  0  0  0  0
    2.7714    1.4131    0.4170 H   0  0  0  0  0  0  0  0  0  0  0  0
    4.2700    0.4704    0.3347 H   0  0  0  0  0  0  0  0  0  0  0  0
    1.7232   -2.4552    0.6899 H   0  0  0  0  0  0  0  0  0  0  0  0
    2.1403   -1.3654    2.0249 H   0  0  0  0  0  0  0  0  0  0  0  0
    0.0914   -0.3799    2.1058 H   0  0  0  0  0  0  0  0  0  0  0  0
   -0.3720   -1.9077    1.3374 H   0  0  0  0  0  0  0  0  0  0  0  0
   -2.3719   -2.9422   -0.3838 H   0  0  0  0  0  0  0  0  0  0  0  0
   -2.8568   -1.3950    0.4293 H   0  0  0  0  0  0  0  0  0  0  0  0
   -2.5861    0.8748   -1.2729 H   0  0  0  0  0  0  0  0  0  0  0  0
   -1.2867    2.1513   -1.0776 H   0  0  0  0  0  0  0  0  0  0  0  0
   -3.9411    1.9558    0.1363 H   0  0  0  0  0  0  0  0  0  0  0  0
   -3.2230    3.1898   -0.7367 H   0  0  0  0  0  0  0  0  0  0  0  0
    0.0408    0.7164   -1.7979 H   0  0  0  0  0  0  0  0  0  0  0  0
    0.8472    1.4411   -0.3255 H   0  0  0  0  0  0  0  0  0  0  0  0
    2.5514    0.4235   -1.6456 H   0  0  0  0  0  0  0  0  0  0  0  0
    1.6732   -1.1811   -1.6992 H   0  0  0  0  0  0  0  0  0  0  0  0
  1  2  1  0
  2  3  1  0
  3  4  1  0
  4  5  1  0
  5  6  1  0
  6  7  1  0
  6  8  2  0
  5  9  1  0
  9 10  2  0
  9 11  1  0
 11 12  1  0
  5 13  1  0
 13 14  1  0
 14  2  1  0
  1 15  1  0
  1 16  1  0
  1 17  1  0
  3 18  1  0
  3 19  1  0
  4 20  1  0
  4 21  1  0
  7 22  1  0
  7 23  1  0
 11 24  1  0
 11 25  1  0
 12 26  1  0
 12 27  1  0
 13 28  1  0
 13 29  1  0
 14 30  1  0
 14 31  1  0
M  END
$$$$

     RDKit          3D

 31 31  0  0  0  0  0  0  0  0999 V2000
    2.9231   -1.4069   -0.4583 C   0  0  0  0  0  0  0  0  0  0  0  0
    2.2718   -0.6655    0.5803 N   0  0  0  0  0  0  0  0  0  0  0  0
    1.0012   -1.1903    0.9701 C   0  0  0  0  0  0  0  0  0  0  0  0
    0.0927   -0.0473    1.3728 C   0  0  0  0  0  0  0  0  0  0  0  0
   -0.3263    0.6669    0.1070 C   0  0  0  0  0  0  0  0  0  0  0  0
   -1.0281    1.9276    0.3721 C   0  0  0  0  0  0  0  0  0  0  0  0
   -1.5009    2.7437   -0.6886 N   0  0  0  0  0  0  0  0  0  0  0  0
   -1.2374    2.3329    1.5402 O   0  0  0  0  0  0  0  0  0  0  0  0
   -1.1603   -0.2988   -0.6631 C   0  0  0  0  0  0  0  0  0  0  0  0
   -0.7953   -0.6203   -1.7695 O   0  0  0  0  0  0  0  0  0  0  0  0
   -2.4109   -0.8804   -0.1373 C   0  0  0  0  0  0  0  0  0  0  0  0
   -3.0082   -1.7838   -1.0987 N   0  0  0  0  0  0  0  0  0  0  0  0
    0.9461    0.9759   -0.6539 C   0  0  0  0  0  0  0  0  0  0  0  0
    2.1797    0.7167    0.1971 C   0  0  0  0  0  0  0  0  0  0  0  0
    2.5438   -1.1375   -1.4841 H   0  0  0  0  0  0  0  0  0  0  0  0
    4.0163   -1.1919   -0.4124 H   0  0  0  0  0  0  0  0  0  0  0  0
    2.8063   -2.5023   -0.3789 H   0  0  0  0  0  0  0  0  0  0  0  0
    1.0710   -1.8604    1.8736 H   0  0  0  0  0  0  0  0  0  0  0  0
    0.4929   -1.7659    0.1757 H   0  0  0  0  0  0  0  0  0  0  0  0
    0.6390    0.5801    2.0772 H   0  0  0  0  0  0  0  0  0  0  0  0
   -0.7696   -0.4826    1.9141 H   0  0  0  0  0  0  0  0  0  0  0  0
   -1.5795    3.7742   -0.5716 H   0  0  0  0  0  0  0  0  0  0  0  0
   -1.7905    2.3554   -1.6288 H   0  0  0  0  0  0  0  0  0  0  0  0
   -3.1090   -0.0440    0.0920 H   0  0  0  0  0  0  0  0  0  0  0  0
   -2.2782   -1.4407    0.8018 H   0  0  0  0  0  0  0  0  0  0  0  0
   -3.7497   -2.3532   -0.5954 H   0  0  0  0  0  0  0  0  0  0  0  0
   -3.5287   -1.2233   -1.8035 H   0  0  0  0  0  0  0  0  0  0  0  0
    1.0300    0.3434   -1.5551 H   0  0  0  0  0  0  0  0  0  0  0  0
    1.0135    2.0691   -0.9161 H   0  0  0  0  0  0  0  0  0  0  0  0
    3.0514    0.9925   -0.4606 H   0  0  0  0  0  0  0  0  0  0  0  0
    2.1937    1.4170    1.0561 H   0  0  0  0  0  0  0  0  0  0  0  0
  1  2  1  0
  2  3  1  0
  3  4  1  0
  4  5  1  0
  5  6  1  0
  6  7  1  0
  6  8  2  0
  5  9  1  0
  9 10  2  0
  9 11  1  0
 11 12  1  0
  5 13  1  0
 13 14  1  0
 14  2  1  0
  1 15  1  0
  1 16  1  0
  1 17  1  0
  3 18  1  0
  3 19  1  0
  4 20  1  0
  4 21  1  0
  7 22  1  0
  7 23  1  0
 11 24  1  0
 11 25  1  0
 12 26  1  0
 12 27  1  0
 13 28  1  0
 13 29  1  0
 14 30  1  0
 14 31  1  0
M  END
$$$$
