
     RDKit          3D

 24 24  0  0  0  0  0  0  0  0999 V2000
    3.7800    0.8691   -0.2561 C   0  0  0  0  0  0  0  0  0  0  0  0
    2.5903    0.1555   -0.5204 O   0  0  0  0  0  0  0  0  0  0  0  0
    1.3632    0.5019    0.0283 C   0  0  0  0  0  0  0  0  0  0  0  0
    1.3306    1.4997    0.7928 O   0  0  0  0  0  0  0  0  0  0  0  0
    0.1968   -0.3131   -0.3184 C   0  0  1  0  0  0  0  0  0  0  0  0
    0.3315   -1.7644    0.0792 C   0  0  0  0  0  0  0  0  0  0  0  0
   -0.9941   -2.2730    0.2467 N   0  0  0  0  0  0  0  0  0  0  0  0
   -1.9134   -1.1690    0.2302 C   0  0  0  0  0  0  0  0  0  0  0  0
   -1.0631    0.0995    0.3637 C   0  0  2  0  0  0  0  0  0  0  0  0
   -1.7228    1.1925   -0.3876 C   0  0  0  0  0  0  0  0  0  0  0  0
   -2.9492    1.7830    0.0377 N   0  0  0  0  0  0  0  0  0  0  0  0
   -1.1723    1.6065   -1.4367 O   0  0  0  0  0  0  0  0  0  0  0  0
    4.5924    0.3385   -0.8170 H   0  0  0  0  0  0  0  0  0  0  0  0
    3.6989    1.9012   -0.6933 H   0  0  0  0  0  0  0  0  0  0  0  0
    3.9899    0.9089    0.8137 H   0  0  0  0  0  0  0  0  0  0  0  0
    0.0157   -0.2846   -1.4198 H   0  0  0  0  0  0  0  0  0  0  0  0
    0.8987   -2.3458   -0.6880 H   0  0  0  0  0  0  0  0  0  0  0  0
    0.9061   -1.8713    1.0346 H   0  0  0  0  0  0  0  0  0  0  0  0
   -1.1463   -2.8406    1.0945 H   0  0  0  0  0  0  0  0  0  0  0  0
   -2.4116   -1.1077   -0.7672 H   0  0  0  0  0  0  0  0  0  0  0  0
   -2.6681   -1.2197    1.0139 H   0  0  0  0  0  0  0  0  0  0  0  0
   -0.9211    0.3628    1.4313 H   0  0  0  0  0  0  0  0  0  0  0  0
   -3.1069    2.7840   -0.1961 H   0  0  0  0  0  0  0  0  0  0  0  0
   -3.6254    1.1862    0.5597 H   0  0  0  0  0  0  0  0  0  0  0  0
  1  2  1  0
  2  3  1  0
  3  4  2  0
  3  5  1  0
  5  6  1  0
  6  7  1  0
  7  8  1  0
  8  9  1  0
  9 10  1  0
 10 11  1  0
 10 12  2  0
  9  5  1  0
  1 13  1  0
  1 14  1  0
  1 15  1  0
  5 16  1  6
  6 17  1  0
  6 18  1  0
  7 19  1  0
  8 20  1  0
  8 21  1  0
  9 22  1  1
 11 23  1  0
 11 24  1  0
M  END
$$$$

     RDKit          3D

 24 24  0  0  0  0  0  0  0  0999 V2000
   -3.1146    1.5622   -0.5345 C   0  0  0  0  0  0  0  0  0  0  0  0
   -1.9663    0.7378   -0.6133 O   0  0  0  0  0  0  0  0  0  0  0  0
   -1.4539    0.1914    0.5280 C   0  0  0  0  0  0  0  0  0  0  0  0
   -2.0227    0.4390    1.6253 O   0  0  0  0  0  0  0  0  0  0  0  0
   -0.2627   -0.6845    0.5824 C   0  0  1  0  0  0  0  0  0  0  0  0
   -0.4081   -1.9387   -0.2167 C   0  0  0  0  0  0  0  0  0  0  0  0
    0.7693   -2.0679   -1.0551 N   0  0  0  0  0  0  0  0  0  0  0  0
    1.7796   -1.2696   -0.3409 C   0  0  0  0  0  0  0  0  0  0  0  0
    0.9393   -0.0210   -0.0617 C   0  0  2  0  0  0  0  0  0  0  0  0
    1.6137    0.9192    0.8204 C   0  0  0  0  0  0  0  0  0  0  0  0
    2.7551    1.6257    0.3764 N   0  0  0  0  0  0  0  0  0  0  0  0
    1.1892    1.1082    1.9745 O   0  0  0  0  0  0  0  0  0  0  0  0
   -2.8481    2.5674   -0.1390 H   0  0  0  0  0  0  0  0  0  0  0  0
   -3.8334    1.1018    0.1746 H   0  0  0  0  0  0  0  0  0  0  0  0
   -3.6076    1.6581   -1.5376 H   0  0  0  0  0  0  0  0  0  0  0  0
    0.0342   -0.9280    1.6183 H   0  0  0  0  0  0  0  0  0  0  0  0
   -0.3975   -2.8207    0.4700 H   0  0  0  0  0  0  0  0  0  0  0  0
   -1.3389   -1.9886   -0.8131 H   0  0  0  0  0  0  0  0  0  0  0  0
    0.5774   -1.5028   -1.9363 H   0  0  0  0  0  0  0  0  0  0  0  0
    1.9535   -1.7787    0.6062 H   0  0  0  0  0  0  0  0  0  0  0  0
    2.6472   -1.0613   -0.9521 H   0  0  0  0  0  0  0  0  0  0  0  0
    0.6357    0.4128   -1.0452 H   0  0  0  0  0  0  0  0  0  0  0  0
    2.6965    2.2725   -0.4277 H   0  0  0  0  0  0  0  0  0  0  0  0
    3.6632    1.4658    0.8970 H   0  0  0  0  0  0  0  0  0  0  0  0
  1  2  1  0
  2  3  1  0
  3  4  2  0
  3  5  1  0
  5  6  1  0
  6  7  1  0
  7  8  1  0
  8  9  1  0
  9 10  1  0
 10 11  1  0
 10 12  2  0
  9  5  1  0
  1 13  1  0
  1 14  1  0
  1 15  1  0
  5 16  1  1
  6 17  1  0
  6 18  1  0
  7 19  1  0
  8 20  1  0
  8 21  1  0
  9 22  1  6
 11 23  1  0
 11 24  1  0
M  END
$$$$

     RDKit          3D

 24 24  0  0  0  0  0  0  0  0999 V2000
    3.6264    0.0999    0.2099 C   0  0  0  0  0  0  0  0  0  0  0  0
    2.2856    0.1625   -0.2300 O   0  0  0  0  0  0  0  0  0  0  0  0
    1.3784   -0.8494    0.0208 C   0  0  0  0  0  0  0  0  0  0  0  0
    1.7666   -1.8507    0.6596 O   0  0  0  0  0  0  0  0  0  0  0  0
   -0.0312   -0.7654   -0.4513 C   0  0  1  0  0  0  0  0  0  0  0  0
   -0.8283   -1.9709   -0.0660 C   0  0  0  0  0  0  0  0  0  0  0  0
   -2.1962   -1.5078   -0.2561 N   0  0  0  0  0  0  0  0  0  0  0  0
   -2.2005   -0.1554    0.2444 C   0  0  0  0  0  0  0  0  0  0  0  0
   -0.7919    0.3632    0.1637 C   0  0  2  0  0  0  0  0  0  0  0  0
   -0.7130    1.6077   -0.6436 C   0  0  0  0  0  0  0  0  0  0  0  0
   -1.3547    2.8073   -0.2598 N   0  0  0  0  0  0  0  0  0  0  0  0
   -0.0544    1.6149   -1.7137 O   0  0  0  0  0  0  0  0  0  0  0  0
    4.1451    0.9890   -0.2183 H   0  0  0  0  0  0  0  0  0  0  0  0
    4.1130   -0.8079   -0.2218 H   0  0  0  0  0  0  0  0  0  0  0  0
    3.7225    0.1054    1.3016 H   0  0  0  0  0  0  0  0  0  0  0  0
    0.0126   -0.7074   -1.5662 H   0  0  0  0  0  0  0  0  0  0  0  0
   -0.7254   -2.1802    1.0258 H   0  0  0  0  0  0  0  0  0  0  0  0
   -0.5974   -2.8711   -0.6427 H   0  0  0  0  0  0  0  0  0  0  0  0
   -2.4949   -1.5720   -1.2652 H   0  0  0  0  0  0  0  0  0  0  0  0
   -2.6108   -0.1782    1.2667 H   0  0  0  0  0  0  0  0  0  0  0  0
   -2.8729    0.4830   -0.3802 H   0  0  0  0  0  0  0  0  0  0  0  0
   -0.3752    0.5993    1.1695 H   0  0  0  0  0  0  0  0  0  0  0  0
   -1.0309    3.3627    0.5854 H   0  0  0  0  0  0  0  0  0  0  0  0
   -2.1723    3.2213   -0.7681 H   0  0  0  0  0  0  0  0  0  0  0  0
  1  2  1  0
  2  3  1  0
  3  4  2  0
  3  5  1  0
  5  6  1  0
  6  7  1  0
  7  8  1  0
  8  9  1  0
  9 10  1  0
 10 11  1  0
 10 12  2  0
  9  5  1  0
  1 13  1  0
  1 14  1  0
  1 15  1  0
  5 16  1  6
  6 17  1  0
  6 18  1  0
  7 19  1  0
  8 20  1  0
  8 21  1  0
  9 22  1  1
 11 23  1  0
 11 24  1  0
M  END
$$$$

     RDKit          3D

 24 24  0  0  0  0  0  0  0  0999 V2000
    3.6716    0.6777   -0.0144 C   0  0  0  0  0  0  0  0  0  0  0  0
    2.2717    0.9029    0.0375 O   0  0  0  0  0  0  0  0  0  0  0  0
    1.4498   -0.0342   -0.6018 C   0  0  0  0  0  0  0  0  0  0  0  0
    1.9692   -1.0155   -1.1832 O   0  0  0  0  0  0  0  0  0  0  0  0
   -0.0154    0.1724   -0.5658 C   0  0  1  0  0  0  0  0  0  0  0  0
   -0.6615   -0.9680   -1.3211 C   0  0  0  0  0  0  0  0  0  0  0  0
   -1.8720   -1.1953   -0.5422 N   0  0  0  0  0  0  0  0  0  0  0  0
   -1.3106   -1.2494    0.8073 C   0  0  0  0  0  0  0  0  0  0  0  0
   -0.5502    0.0547    0.8615 C   0  0  2  0  0  0  0  0  0  0  0  0
   -1.4160    1.2010    1.1621 C   0  0  0  0  0  0  0  0  0  0  0  0
   -2.5927    1.4896    0.4220 N   0  0  0  0  0  0  0  0  0  0  0  0
   -1.1086    1.9592    2.1101 O   0  0  0  0  0  0  0  0  0  0  0  0
    4.1268    1.3546    0.7447 H   0  0  0  0  0  0  0  0  0  0  0  0
    3.8950   -0.3802    0.2196 H   0  0  0  0  0  0  0  0  0  0  0  0
    4.0663    0.8861   -1.0249 H   0  0  0  0  0  0  0  0  0  0  0  0
   -0.3153    1.1508   -1.0009 H   0  0  0  0  0  0  0  0  0  0  0  0
   -0.0496   -1.8830   -1.2146 H   0  0  0  0  0  0  0  0  0  0  0  0
   -0.8844   -0.7117   -2.3732 H   0  0  0  0  0  0  0  0  0  0  0  0
   -2.2596   -2.1488   -0.7676 H   0  0  0  0  0  0  0  0  0  0  0  0
   -0.5472   -2.0612    0.7938 H   0  0  0  0  0  0  0  0  0  0  0  0
   -2.0637   -1.3620    1.5818 H   0  0  0  0  0  0  0  0  0  0  0  0
    0.2675   -0.0356    1.5929 H   0  0  0  0  0  0  0  0  0  0  0  0
   -3.4859    1.7685    0.8899 H   0  0  0  0  0  0  0  0  0  0  0  0
   -2.5853    1.4275   -0.6136 H   0  0  0  0  0  0  0  0  0  0  0  0
  1  2  1  0
  2  3  1  0
  3  4  2  0
  3  5  1  0
  5  6  1  0
  6  7  1  0
  7  8  1  0
  8  9  1  0
  9 10  1  0
 10 11  1  0
 10 12  2  0
  9  5  1  0
  1 13  1  0
  1 14  1  0
  1 15  1  0
  5 16  1  6
  6 17  1  0
  6 18  1  0
  7 19  1  0
  8 20  1  0
  8 21  1  0
  9 22  1  1
 11 23  1  0
 11 24  1  0
M  END
$$$$

     RDKit          3D

 24 24  0  0  0  0  0  0  0  0999 V2000
    3.7811    0.3199   -0.1828 C   0  0  0  0  0  0  0  0  0  0  0  0
    2.5021   -0.0428   -0.6575 O   0  0  0  0  0  0  0  0  0  0  0  0
    1.3917    0.2756    0.0971 C   0  0  0  0  0  0  0  0  0  0  0  0
    1.4841    0.8778    1.1922 O   0  0  0  0  0  0  0  0  0  0  0  0
    0.0348   -0.0932   -0.3770 C   0  0  1  0  0  0  0  0  0  0  0  0
   -0.0522   -1.6069   -0.5381 C   0  0  0  0  0  0  0  0  0  0  0  0
   -1.1333   -2.0566    0.2837 N   0  0  0  0  0  0  0  0  0  0  0  0
   -2.0360   -0.8966    0.3357 C   0  0  0  0  0  0  0  0  0  0  0  0
   -1.0099    0.1859    0.6838 C   0  0  2  0  0  0  0  0  0  0  0  0
   -1.5768    1.5291    0.6068 C   0  0  0  0  0  0  0  0  0  0  0  0
   -2.2544    1.9755   -0.5423 N   0  0  0  0  0  0  0  0  0  0  0  0
   -1.4481    2.2923    1.5986 O   0  0  0  0  0  0  0  0  0  0  0  0
    4.1810    1.2300   -0.6821 H   0  0  0  0  0  0  0  0  0  0  0  0
    3.7327    0.4375    0.9173 H   0  0  0  0  0  0  0  0  0  0  0  0
    4.4487   -0.5625   -0.4071 H   0  0  0  0  0  0  0  0  0  0  0  0
   -0.2594    0.4249   -1.2988 H   0  0  0  0  0  0  0  0  0  0  0  0
   -0.3196   -1.8389   -1.5994 H   0  0  0  0  0  0  0  0  0  0  0  0
    0.8975   -2.0949   -0.2895 H   0  0  0  0  0  0  0  0  0  0  0  0
   -1.6106   -2.9002   -0.0424 H   0  0  0  0  0  0  0  0  0  0  0  0
   -2.8081   -1.0014    1.0906 H   0  0  0  0  0  0  0  0  0  0  0  0
   -2.3839   -0.7205   -0.6852 H   0  0  0  0  0  0  0  0  0  0  0  0
   -0.5719   -0.0507    1.6624 H   0  0  0  0  0  0  0  0  0  0  0  0
   -2.9723    1.3941   -1.0137 H   0  0  0  0  0  0  0  0  0  0  0  0
   -2.0173    2.9224   -0.9207 H   0  0  0  0  0  0  0  0  0  0  0  0
  1  2  1  0
  2  3  1  0
  3  4  2  0
  3  5  1  0
  5  6  1  0
  6  7  1  0
  7  8  1  0
  8  9  1  0
  9 10  1  0
 10 11  1  0
 10 12  2  0
  9  5  1  0
  1 13  1  0
  1 14  1  0
  1 15  1  0
  5 16  1  6
  6 17  1  0
  6 18  1  0
  7 19  1  0
  8 20  1  0
  8 21  1  0
  9 22  1  1
 11 23  1  0
 11 24  1  0
M  END
$$$$

     RDKit          3D

 24 24  0  0  0  0  0  0  0  0999 V2000
    3.4620    0.8469    0.0538 C   0  0  0  0  0  0  0  0  0  0  0  0
    2.1191    0.6285   -0.3404 O   0  0  0  0  0  0  0  0  0  0  0  0
    1.4763   -0.5700   -0.1697 C   0  0  0  0  0  0  0  0  0  0  0  0
    2.1232   -1.5155    0.3655 O   0  0  0  0  0  0  0  0  0  0  0  0
    0.0798   -0.7163   -0.6062 C   0  0  1  0  0  0  0  0  0  0  0  0
   -0.4473   -2.1089   -0.3314 C   0  0  0  0  0  0  0  0  0  0  0  0
   -1.8714   -1.8941   -0.2420 N   0  0  0  0  0  0  0  0  0  0  0  0
   -2.0954   -0.5917    0.2963 C   0  0  0  0  0  0  0  0  0  0  0  0
   -0.7923    0.1554    0.2874 C   0  0  2  0  0  0  0  0  0  0  0  0
   -0.9345    1.4913   -0.3095 C   0  0  0  0  0  0  0  0  0  0  0  0
   -1.7177    2.4697    0.3714 N   0  0  0  0  0  0  0  0  0  0  0  0
   -0.3882    1.7951   -1.3978 O   0  0  0  0  0  0  0  0  0  0  0  0
    4.1121    0.3213   -0.6617 H   0  0  0  0  0  0  0  0  0  0  0  0
    3.7119    1.9049    0.1172 H   0  0  0  0  0  0  0  0  0  0  0  0
    3.6181    0.3727    1.0601 H   0  0  0  0  0  0  0  0  0  0  0  0
   -0.1137   -0.4266   -1.6388 H   0  0  0  0  0  0  0  0  0  0  0  0
   -0.1733   -2.7687   -1.1758 H   0  0  0  0  0  0  0  0  0  0  0  0
   -0.0887   -2.4583    0.6374 H   0  0  0  0  0  0  0  0  0  0  0  0
   -2.3482   -2.0777   -1.1477 H   0  0  0  0  0  0  0  0  0  0  0  0
   -2.8447   -0.0459   -0.3318 H   0  0  0  0  0  0  0  0  0  0  0  0
   -2.4761   -0.6982    1.3335 H   0  0  0  0  0  0  0  0  0  0  0  0
   -0.4002    0.2165    1.3177 H   0  0  0  0  0  0  0  0  0  0  0  0
   -1.2669    3.2343    0.9273 H   0  0  0  0  0  0  0  0  0  0  0  0
   -2.7439    2.4353    0.3237 H   0  0  0  0  0  0  0  0  0  0  0  0
  1  2  1  0
  2  3  1  0
  3  4  2  0
  3  5  1  0
  5  6  1  0
  6  7  1  0
  7  8  1  0
  8  9  1  0
  9 10  1  0
 10 11  1  0
 10 12  2  0
  9  5  1  0
  1 13  1  0
  1 14  1  0
  1 15  1  0
  5 16  1  6
  6 17  1  0
  6 18  1  0
  7 19  1  0
  8 20  1  0
  8 21  1  0
  9 22  1  1
 11 23  1  0
 11 24  1  0
M  END
$$$$

     RDKit          3D

 24 24  0  0  0  0  0  0  0  0999 V2000
   -3.4671    1.1995   -0.1796 C   0  0  0  0  0  0  0  0  0  0  0  0
   -2.1391    0.8463    0.2285 O   0  0  0  0  0  0  0  0  0  0  0  0
   -1.5342   -0.3357   -0.1783 C   0  0  0  0  0  0  0  0  0  0  0  0
   -2.2093   -1.0860   -0.9255 O   0  0  0  0  0  0  0  0  0  0  0  0
   -0.1880   -0.7333    0.2123 C   0  0  1  0  0  0  0  0  0  0  0  0
    0.1516   -2.0715   -0.4076 C   0  0  0  0  0  0  0  0  0  0  0  0
    1.5840   -2.1297   -0.2166 N   0  0  0  0  0  0  0  0  0  0  0  0
    2.0960   -0.7958   -0.3188 C   0  0  0  0  0  0  0  0  0  0  0  0
    0.8970    0.1337   -0.3858 C   0  0  2  0  0  0  0  0  0  0  0  0
    1.1727    1.3304    0.4260 C   0  0  0  0  0  0  0  0  0  0  0  0
    2.1605    2.2357   -0.0042 N   0  0  0  0  0  0  0  0  0  0  0  0
    0.5339    1.5245    1.4737 O   0  0  0  0  0  0  0  0  0  0  0  0
   -4.1805    1.1100    0.6806 H   0  0  0  0  0  0  0  0  0  0  0  0
   -3.5146    2.2065   -0.5983 H   0  0  0  0  0  0  0  0  0  0  0  0
   -3.7909    0.4679   -0.9366 H   0  0  0  0  0  0  0  0  0  0  0  0
   -0.0444   -0.7452    1.3135 H   0  0  0  0  0  0  0  0  0  0  0  0
   -0.0365   -1.9716   -1.4974 H   0  0  0  0  0  0  0  0  0  0  0  0
   -0.3823   -2.9016    0.0588 H   0  0  0  0  0  0  0  0  0  0  0  0
    1.7314   -2.5255    0.7518 H   0  0  0  0  0  0  0  0  0  0  0  0
    2.6643   -0.5643    0.6242 H   0  0  0  0  0  0  0  0  0  0  0  0
    2.7467   -0.7166   -1.1897 H   0  0  0  0  0  0  0  0  0  0  0  0
    0.7068    0.3904   -1.4359 H   0  0  0  0  0  0  0  0  0  0  0  0
    2.3168    2.3856   -1.0101 H   0  0  0  0  0  0  0  0  0  0  0  0
    2.7252    2.7465    0.6877 H   0  0  0  0  0  0  0  0  0  0  0  0
  1  2  1  0
  2  3  1  0
  3  4  2  0
  3  5  1  0
  5  6  1  0
  6  7  1  0
  7  8  1  0
  8  9  1  0
  9 10  1  0
 10 11  1  0
 10 12  2  0
  9  5  1  0
  1 13  1  0
  1 14  1  0
  1 15  1  0
  5 16  1  1
  6 17  1  0
  6 18  1  0
  7 19  1  0
  8 20  1  0
  8 21  1  0
  9 22  1  6
 11 23  1  0
 11 24  1  0
M  END
$$$$

     RDKit          3D

 24 24  0  0  0  0  0  0  0  0999 V2000
    3.9260    0.0383   -0.2630 C   0  0  0  0  0  0  0  0  0  0  0  0
    2.5704   -0.2990   -0.5898 O   0  0  0  0  0  0  0  0  0  0  0  0
    1.5035    0.4463   -0.1108 C   0  0  0  0  0  0  0  0  0  0  0  0
    1.7537    1.4237    0.6161 O   0  0  0  0  0  0  0  0  0  0  0  0
    0.0961    0.0535   -0.4811 C   0  0  1  0  0  0  0  0  0  0  0  0
   -0.1788   -1.3469    0.0082 C   0  0  0  0  0  0  0  0  0  0  0  0
   -1.1062   -1.2667    1.0887 N   0  0  0  0  0  0  0  0  0  0  0  0
   -1.2369    0.1045    1.4879 C   0  0  0  0  0  0  0  0  0  0  0  0
   -0.8933    0.9246    0.2470 C   0  0  2  0  0  0  0  0  0  0  0  0
   -2.1479    1.1069   -0.5170 C   0  0  0  0  0  0  0  0  0  0  0  0
   -2.9852    0.0250   -0.8928 N   0  0  0  0  0  0  0  0  0  0  0  0
   -2.4780    2.2755   -0.8429 O   0  0  0  0  0  0  0  0  0  0  0  0
    4.3389    0.7698   -0.9689 H   0  0  0  0  0  0  0  0  0  0  0  0
    4.4707   -0.9452   -0.2882 H   0  0  0  0  0  0  0  0  0  0  0  0
    3.9172    0.3718    0.7821 H   0  0  0  0  0  0  0  0  0  0  0  0
   -0.0214    0.0840   -1.5840 H   0  0  0  0  0  0  0  0  0  0  0  0
   -0.5188   -1.9897   -0.8293 H   0  0  0  0  0  0  0  0  0  0  0  0
    0.7632   -1.7972    0.3896 H   0  0  0  0  0  0  0  0  0  0  0  0
   -2.0000   -1.7523    0.9237 H   0  0  0  0  0  0  0  0  0  0  0  0
   -2.2577    0.3086    1.8525 H   0  0  0  0  0  0  0  0  0  0  0  0
   -0.4994    0.3328    2.3057 H   0  0  0  0  0  0  0  0  0  0  0  0
   -0.4628    1.8864    0.5431 H   0  0  0  0  0  0  0  0  0  0  0  0
   -2.7454   -0.4760   -1.7918 H   0  0  0  0  0  0  0  0  0  0  0  0
   -3.8080   -0.2789   -0.3192 H   0  0  0  0  0  0  0  0  0  0  0  0
  1  2  1  0
  2  3  1  0
  3  4  2  0
  3  5  1  0
  5  6  1  0
  6  7  1  0
  7  8  1  0
  8  9  1  0
  9 10  1  0
 10 11  1  0
 10 12  2  0
  9  5  1  0
  1 13  1  0
  1 14  1  0
  1 15  1  0
  5 16  1  6
  6 17  1  0
  6 18  1  0
  7 19  1  0
  8 20  1  0
  8 21  1  0
  9 22  1  1
 11 23  1  0
 11 24  1  0
M  END
$$$$
