
     RDKit          3D

 24 24  0  0  0  0  0  0  0  0999 V2000
    2.8074   -1.2267    0.2898 C   0  0  0  0  0  0  0  0  0  0  0  0
    1.3509   -1.0645    0.5994 C   0  0  0  0  0  0  0  0  0  0  0  0
    0.6789   -0.2370   -0.4833 C   0  0  2  0  0  0  0  0  0  0  0  0
    1.3436    1.1003   -0.5223 C   0  0  0  0  0  0  0  0  0  0  0  0
    0.6414    2.3041   -0.3243 N   0  0  0  0  0  0  0  0  0  0  0  0
    2.5826    1.1731   -0.7401 O   0  0  0  0  0  0  0  0  0  0  0  0
   -0.7254   -0.0781   -0.2223 N   0  0  0  0  0  0  0  0  0  0  0  0
   -1.7780   -0.5040   -1.0624 C   0  0  0  0  0  0  0  0  0  0  0  0
   -1.7432   -0.8742   -2.2661 O   0  0  0  0  0  0  0  0  0  0  0  0
   -3.0425   -0.4555   -0.2764 C   0  0  0  0  0  0  0  0  0  0  0  0
   -2.7202    0.4804    0.7808 N   0  0  0  0  0  0  0  0  0  0  0  0
   -1.3073    0.5335    0.9229 C   0  0  0  0  0  0  0  0  0  0  0  0
   -0.6912    1.0469    1.9166 O   0  0  0  0  0  0  0  0  0  0  0  0
    3.3945   -0.4330    0.7830 H   0  0  0  0  0  0  0  0  0  0  0  0
    3.1509   -2.2460    0.5663 H   0  0  0  0  0  0  0  0  0  0  0  0
    2.9253   -1.1375   -0.8260 H   0  0  0  0  0  0  0  0  0  0  0  0
    1.1890   -0.5640    1.5966 H   0  0  0  0  0  0  0  0  0  0  0  0
    0.8830   -2.0624    0.6833 H   0  0  0  0  0  0  0  0  0  0  0  0
    0.8333   -0.7419   -1.4381 H   0  0  0  0  0  0  0  0  0  0  0  0
   -0.0712    2.6108   -1.0214 H   0  0  0  0  0  0  0  0  0  0  0  0
    0.8306    2.8813    0.5074 H   0  0  0  0  0  0  0  0  0  0  0  0
   -3.8459   -0.0801   -0.9453 H   0  0  0  0  0  0  0  0  0  0  0  0
   -3.2713   -1.4638    0.1235 H   0  0  0  0  0  0  0  0  0  0  0  0
   -3.4150    1.0382    1.3586 H   0  0  0  0  0  0  0  0  0  0  0  0
  1  2  1  0
  2  3  1  0
  3  4  1  0
  4  5  1  0
  4  6  2  0
  3  7  1  0
  7  8  1  0
  8  9  2  0
  8 10  1  0
 10 11  1  0
 11 12  1  0
 12 13  2  0
 12  7  1  0
  1 14  1  0
  1 15  1  0
  1 16  1  0
  2 17  1  0
  2 18  1  0
  3 19  1  6
  5 20  1  0
  5 21  1  0
 10 22  1  0
 10 23  1  0
 11 24  1  0
M  END
$$$$

     RDKit          3D

 24 24  0  0  0  0  0  0  0  0999 V2000
    2.7762   -0.5154   -0.4818 C   0  0  0  0  0  0  0  0  0  0  0  0
    1.3151   -0.8986   -0.4533 C   0  0  0  0  0  0  0  0  0  0  0  0
    0.4414    0.2862   -0.2057 C   0  0  2  0  0  0  0  0  0  0  0  0
    0.8301    0.8499    1.1130 C   0  0  0  0  0  0  0  0  0  0  0  0
    2.1072    1.2667    1.4760 N   0  0  0  0  0  0  0  0  0  0  0  0
   -0.1150    0.9504    1.9742 O   0  0  0  0  0  0  0  0  0  0  0  0
   -0.9621   -0.0127   -0.2681 N   0  0  0  0  0  0  0  0  0  0  0  0
   -1.9050    0.5949   -1.1702 C   0  0  0  0  0  0  0  0  0  0  0  0
   -1.6348    1.1965   -2.2525 O   0  0  0  0  0  0  0  0  0  0  0  0
   -3.2620    0.3709   -0.5693 C   0  0  0  0  0  0  0  0  0  0  0  0
   -3.0689   -0.8918    0.0963 N   0  0  0  0  0  0  0  0  0  0  0  0
   -1.7003   -0.9362    0.5145 C   0  0  0  0  0  0  0  0  0  0  0  0
   -1.2461   -1.6762    1.4248 O   0  0  0  0  0  0  0  0  0  0  0  0
    3.2824   -0.8873    0.4563 H   0  0  0  0  0  0  0  0  0  0  0  0
    3.3119   -1.0524   -1.3221 H   0  0  0  0  0  0  0  0  0  0  0  0
    2.9502    0.5565   -0.6315 H   0  0  0  0  0  0  0  0  0  0  0  0
    1.0933   -1.4323   -1.3951 H   0  0  0  0  0  0  0  0  0  0  0  0
    1.1748   -1.6747    0.3552 H   0  0  0  0  0  0  0  0  0  0  0  0
    0.7024    1.0733   -0.9723 H   0  0  0  0  0  0  0  0  0  0  0  0
    2.5017    2.1445    1.0963 H   0  0  0  0  0  0  0  0  0  0  0  0
    2.6775    0.7058    2.1310 H   0  0  0  0  0  0  0  0  0  0  0  0
   -3.3915    1.2080    0.1701 H   0  0  0  0  0  0  0  0  0  0  0  0
   -4.0598    0.3790   -1.3088 H   0  0  0  0  0  0  0  0  0  0  0  0
   -3.8187   -1.6049    0.2232 H   0  0  0  0  0  0  0  0  0  0  0  0
  1  2  1  0
  2  3  1  0
  3  4  1  0
  4  5  1  0
  4  6  2  0
  3  7  1  0
  7  8  1  0
  8  9  2  0
  8 10  1  0
 10 11  1  0
 11 12  1  0
 12 13  2  0
 12  7  1  0
  1 14  1  0
  1 15  1  0
  1 16  1  0
  2 17  1  0
  2 18  1  0
  3 19  1  6
  5 20  1  0
  5 21  1  0
 10 22  1  0
 10 23  1  0
 11 24  1  0
M  END
$$$$

     RDKit          3D

 24 24  0  0  0  0  0  0  0  0999 V2000
   -2.0610   -1.4789    0.4704 C   0  0  0  0  0  0  0  0  0  0  0  0
   -2.0082   -0.1129   -0.1786 C   0  0  0  0  0  0  0  0  0  0  0  0
   -0.8361    0.6958    0.2977 C   0  0  2  0  0  0  0  0  0  0  0  0
   -0.8254    2.0385   -0.3713 C   0  0  0  0  0  0  0  0  0  0  0  0
    0.3426    2.5206   -1.0339 N   0  0  0  0  0  0  0  0  0  0  0  0
   -1.8339    2.7885   -0.3769 O   0  0  0  0  0  0  0  0  0  0  0  0
    0.4265    0.0643    0.1522 N   0  0  0  0  0  0  0  0  0  0  0  0
    1.3210   -0.2499    1.2224 C   0  0  0  0  0  0  0  0  0  0  0  0
    1.3178    0.2478    2.3993 O   0  0  0  0  0  0  0  0  0  0  0  0
    2.2875   -1.2755    0.7478 C   0  0  0  0  0  0  0  0  0  0  0  0
    2.3611   -0.9718   -0.6704 N   0  0  0  0  0  0  0  0  0  0  0  0
    1.1073   -0.3996   -1.0112 C   0  0  0  0  0  0  0  0  0  0  0  0
    0.6675   -0.3170   -2.1716 O   0  0  0  0  0  0  0  0  0  0  0  0
   -3.0471   -1.6536    0.9757 H   0  0  0  0  0  0  0  0  0  0  0  0
   -1.8128   -2.2940   -0.2302 H   0  0  0  0  0  0  0  0  0  0  0  0
   -1.2882   -1.4815    1.2756 H   0  0  0  0  0  0  0  0  0  0  0  0
   -2.0429   -0.2651   -1.2641 H   0  0  0  0  0  0  0  0  0  0  0  0
   -2.9307    0.4310    0.1121 H   0  0  0  0  0  0  0  0  0  0  0  0
   -1.0234    0.9089    1.3704 H   0  0  0  0  0  0  0  0  0  0  0  0
    0.4445    2.4787   -2.0620 H   0  0  0  0  0  0  0  0  0  0  0  0
    1.1484    2.9400   -0.4866 H   0  0  0  0  0  0  0  0  0  0  0  0
    1.8137   -2.2586    0.8517 H   0  0  0  0  0  0  0  0  0  0  0  0
    3.2737   -1.1945    1.2452 H   0  0  0  0  0  0  0  0  0  0  0  0
    3.1982   -1.1612   -1.2637 H   0  0  0  0  0  0  0  0  0  0  0  0
  1  2  1  0
  2  3  1  0
  3  4  1  0
  4  5  1  0
  4  6  2  0
  3  7  1  0
  7  8  1  0
  8  9  2  0
  8 10  1  0
 10 11  1  0
 11 12  1  0
 12 13  2  0
 12  7  1  0
  1 14  1  0
  1 15  1  0
  1 16  1  0
  2 17  1  0
  2 18  1  0
  3 19  1  1
  5 20  1  0
  5 21  1  0
 10 22  1  0
 10 23  1  0
 11 24  1  0
M  END
$$$$

     RDKit          3D

 24 24  0  0  0  0  0  0  0  0999 V2000
   -1.7448   -0.8418    1.4926 C   0  0  0  0  0  0  0  0  0  0  0  0
   -1.7367   -0.0418    0.1979 C   0  0  0  0  0  0  0  0  0  0  0  0
   -0.4689    0.7622    0.0524 C   0  0  2  0  0  0  0  0  0  0  0  0
   -0.5878    1.4954   -1.2500 C   0  0  0  0  0  0  0  0  0  0  0  0
   -1.6988    2.3524   -1.4700 N   0  0  0  0  0  0  0  0  0  0  0  0
    0.2886    1.3471   -2.1284 O   0  0  0  0  0  0  0  0  0  0  0  0
    0.7156   -0.0277    0.0406 N   0  0  0  0  0  0  0  0  0  0  0  0
    1.0913   -1.0679   -0.8455 C   0  0  0  0  0  0  0  0  0  0  0  0
    0.3506   -1.5672   -1.7128 O   0  0  0  0  0  0  0  0  0  0  0  0
    2.4897   -1.4806   -0.5976 C   0  0  0  0  0  0  0  0  0  0  0  0
    2.8143   -0.8390    0.6770 N   0  0  0  0  0  0  0  0  0  0  0  0
    1.7845    0.0975    0.9664 C   0  0  0  0  0  0  0  0  0  0  0  0
    1.8226    0.9205    1.9141 O   0  0  0  0  0  0  0  0  0  0  0  0
   -2.4355   -1.7113    1.3104 H   0  0  0  0  0  0  0  0  0  0  0  0
   -0.7440   -1.3015    1.6695 H   0  0  0  0  0  0  0  0  0  0  0  0
   -2.0723   -0.2169    2.3321 H   0  0  0  0  0  0  0  0  0  0  0  0
   -2.5829    0.6739    0.2701 H   0  0  0  0  0  0  0  0  0  0  0  0
   -1.9285   -0.6858   -0.6647 H   0  0  0  0  0  0  0  0  0  0  0  0
   -0.4539    1.4896    0.8764 H   0  0  0  0  0  0  0  0  0  0  0  0
   -2.3846    2.5686   -0.7379 H   0  0  0  0  0  0  0  0  0  0  0  0
   -1.8359    2.7861   -2.4072 H   0  0  0  0  0  0  0  0  0  0  0  0
    2.5472   -2.5695   -0.4588 H   0  0  0  0  0  0  0  0  0  0  0  0
    3.1073   -1.0948   -1.4124 H   0  0  0  0  0  0  0  0  0  0  0  0
    3.6628   -1.0473    1.2598 H   0  0  0  0  0  0  0  0  0  0  0  0
  1  2  1  0
  2  3  1  0
  3  4  1  0
  4  5  1  0
  4  6  2  0
  3  7  1  0
  7  8  1  0
  8  9  2  0
  8 10  1  0
 10 11  1  0
 11 12  1  0
 12 13  2  0
 12  7  1  0
  1 14  1  0
  1 15  1  0
  1 16  1  0
  2 17  1  0
  2 18  1  0
  3 19  1  1
  5 20  1  0
  5 21  1  0
 10 22  1  0
 10 23  1  0
 11 24  1  0
M  END
$$$$

     RDKit          3D

 24 24  0  0  0  0  0  0  0  0999 V2000
   -2.6660   -0.8630    0.5181 C   0  0  0  0  0  0  0  0  0  0  0  0
   -1.1974   -1.0095    0.2878 C   0  0  0  0  0  0  0  0  0  0  0  0
   -0.4435    0.3011    0.3728 C   0  0  2  0  0  0  0  0  0  0  0  0
   -0.9510    1.2503   -0.6439 C   0  0  0  0  0  0  0  0  0  0  0  0
   -2.3002    1.6967   -0.5853 N   0  0  0  0  0  0  0  0  0  0  0  0
   -0.2099    1.6606   -1.5477 O   0  0  0  0  0  0  0  0  0  0  0  0
    0.9562    0.0019    0.0938 N   0  0  0  0  0  0  0  0  0  0  0  0
    2.0493    0.1864    0.9944 C   0  0  0  0  0  0  0  0  0  0  0  0
    2.0109    0.3597    2.2329 O   0  0  0  0  0  0  0  0  0  0  0  0
    3.3150    0.1415    0.2100 C   0  0  0  0  0  0  0  0  0  0  0  0
    2.9221   -0.6545   -0.9294 N   0  0  0  0  0  0  0  0  0  0  0  0
    1.5198   -0.5217   -1.0966 C   0  0  0  0  0  0  0  0  0  0  0  0
    0.8168   -0.8031   -2.1111 O   0  0  0  0  0  0  0  0  0  0  0  0
   -2.9979   -1.6852    1.2007 H   0  0  0  0  0  0  0  0  0  0  0  0
   -3.2327   -0.9701   -0.4208 H   0  0  0  0  0  0  0  0  0  0  0  0
   -2.9521    0.0784    1.0336 H   0  0  0  0  0  0  0  0  0  0  0  0
   -0.7355   -1.7472    0.9739 H   0  0  0  0  0  0  0  0  0  0  0  0
   -1.0486   -1.4317   -0.7413 H   0  0  0  0  0  0  0  0  0  0  0  0
   -0.5558    0.7009    1.4002 H   0  0  0  0  0  0  0  0  0  0  0  0
   -3.0157    1.2877   -1.2049 H   0  0  0  0  0  0  0  0  0  0  0  0
   -2.5059    2.4586    0.1229 H   0  0  0  0  0  0  0  0  0  0  0  0
    4.1284   -0.3418    0.7720 H   0  0  0  0  0  0  0  0  0  0  0  0
    3.5854    1.1502   -0.1601 H   0  0  0  0  0  0  0  0  0  0  0  0
    3.5083   -1.2463   -1.5626 H   0  0  0  0  0  0  0  0  0  0  0  0
  1  2  1  0
  2  3  1  0
  3  4  1  0
  4  5  1  0
  4  6  2  0
  3  7  1  0
  7  8  1  0
  8  9  2  0
  8 10  1  0
 10 11  1  0
 11 12  1  0
 12 13  2  0
 12  7  1  0
  1 14  1  0
  1 15  1  0
  1 16  1  0
  2 17  1  0
  2 18  1  0
  3 19  1  1
  5 20  1  0
  5 21  1  0
 10 22  1  0
 10 23  1  0
 11 24  1  0
M  END
$$$$

     RDKit          3D

 24 24  0  0  0  0  0  0  0  0999 V2000
   -2.7404   -0.7756   -0.0017 C   0  0  0  0  0  0  0  0  0  0  0  0
   -1.2718   -0.9690   -0.2534 C   0  0  0  0  0  0  0  0  0  0  0  0
   -0.4685    0.1956    0.2971 C   0  0  2  0  0  0  0  0  0  0  0  0
   -0.8320    1.4877   -0.3073 C   0  0  0  0  0  0  0  0  0  0  0  0
   -2.1655    1.9661   -0.2658 N   0  0  0  0  0  0  0  0  0  0  0  0
    0.0136    2.2377   -0.8916 O   0  0  0  0  0  0  0  0  0  0  0  0
    0.9387   -0.0956    0.1741 N   0  0  0  0  0  0  0  0  0  0  0  0
    1.8274   -0.2733    1.2633 C   0  0  0  0  0  0  0  0  0  0  0  0
    1.5467   -0.3038    2.4995 O   0  0  0  0  0  0  0  0  0  0  0  0
    3.2023   -0.4279    0.7518 C   0  0  0  0  0  0  0  0  0  0  0  0
    3.0458   -0.5352   -0.6907 N   0  0  0  0  0  0  0  0  0  0  0  0
    1.6866   -0.2562   -1.0114 C   0  0  0  0  0  0  0  0  0  0  0  0
    1.2677   -0.1761   -2.2045 O   0  0  0  0  0  0  0  0  0  0  0  0
   -2.8397   -0.2580    0.9790 H   0  0  0  0  0  0  0  0  0  0  0  0
   -3.1898   -0.1195   -0.7711 H   0  0  0  0  0  0  0  0  0  0  0  0
   -3.2989   -1.7376   -0.0151 H   0  0  0  0  0  0  0  0  0  0  0  0
   -1.1375   -0.9610   -1.3689 H   0  0  0  0  0  0  0  0  0  0  0  0
   -0.8679   -1.9216    0.0956 H   0  0  0  0  0  0  0  0  0  0  0  0
   -0.7240    0.2539    1.3662 H   0  0  0  0  0  0  0  0  0  0  0  0
   -2.6469    2.1780   -1.1477 H   0  0  0  0  0  0  0  0  0  0  0  0
   -2.6469    2.1014    0.6473 H   0  0  0  0  0  0  0  0  0  0  0  0
    3.7650    0.4956    1.0109 H   0  0  0  0  0  0  0  0  0  0  0  0
    3.7119   -1.3300    1.1679 H   0  0  0  0  0  0  0  0  0  0  0  0
    3.8239   -0.7758   -1.3233 H   0  0  0  0  0  0  0  0  0  0  0  0
  1  2  1  0
  2  3  1  0
  3  4  1  0
  4  5  1  0
  4  6  2  0
  3  7  1  0
  7  8  1  0
  8  9  2  0
  8 10  1  0
 10 11  1  0
 11 12  1  0
 12 13  2  0
 12  7  1  0
  1 14  1  0
  1 15  1  0
  1 16  1  0
  2 17  1  0
  2 18  1  0
  3 19  1  1
  5 20  1  0
  5 21  1  0
 10 22  1  0
 10 23  1  0
 11 24  1  0
M  END
$$$$

     RDKit          3D

 24 24  0  0  0  0  0  0  0  0999 V2000
   -1.5119    1.8479   -1.1015 C   0  0  0  0  0  0  0  0  0  0  0  0
   -1.8805    0.6574   -0.2645 C   0  0  0  0  0  0  0  0  0  0  0  0
   -0.9244   -0.4890   -0.5172 C   0  0  2  0  0  0  0  0  0  0  0  0
   -1.3600   -1.6362    0.3543 C   0  0  0  0  0  0  0  0  0  0  0  0
   -0.5024   -2.2261    1.3063 N   0  0  0  0  0  0  0  0  0  0  0  0
   -2.5240   -2.0984    0.2450 O   0  0  0  0  0  0  0  0  0  0  0  0
    0.4420   -0.1369   -0.2104 N   0  0  0  0  0  0  0  0  0  0  0  0
    0.9476    0.3071    1.0303 C   0  0  0  0  0  0  0  0  0  0  0  0
    0.2695    0.6039    2.0430 O   0  0  0  0  0  0  0  0  0  0  0  0
    2.4249    0.3791    0.9799 C   0  0  0  0  0  0  0  0  0  0  0  0
    2.7097    0.2430   -0.4356 N   0  0  0  0  0  0  0  0  0  0  0  0
    1.5375   -0.1764   -1.1205 C   0  0  0  0  0  0  0  0  0  0  0  0
    1.4875   -0.5232   -2.3313 O   0  0  0  0  0  0  0  0  0  0  0  0
   -2.4042    2.4991   -1.1765 H   0  0  0  0  0  0  0  0  0  0  0  0
   -0.6270    2.3848   -0.7052 H   0  0  0  0  0  0  0  0  0  0  0  0
   -1.2897    1.4848   -2.1301 H   0  0  0  0  0  0  0  0  0  0  0  0
   -1.7947    0.9488    0.8074 H   0  0  0  0  0  0  0  0  0  0  0  0
   -2.8933    0.3178   -0.4930 H   0  0  0  0  0  0  0  0  0  0  0  0
   -1.0132   -0.8015   -1.5775 H   0  0  0  0  0  0  0  0  0  0  0  0
    0.3048   -2.7805    0.9657 H   0  0  0  0  0  0  0  0  0  0  0  0
   -0.7212   -2.0764    2.3171 H   0  0  0  0  0  0  0  0  0  0  0  0
    2.8791   -0.4646    1.5291 H   0  0  0  0  0  0  0  0  0  0  0  0
    2.8206    1.3141    1.3740 H   0  0  0  0  0  0  0  0  0  0  0  0
    3.6233    0.4214   -0.8889 H   0  0  0  0  0  0  0  0  0  0  0  0
  1  2  1  0
  2  3  1  0
  3  4  1  0
  4  5  1  0
  4  6  2  0
  3  7  1  0
  7  8  1  0
  8  9  2  0
  8 10  1  0
 10 11  1  0
 11 12  1  0
 12 13  2  0
 12  7  1  0
  1 14  1  0
  1 15  1  0
  1 16  1  0
  2 17  1  0
  2 18  1  0
  3 19  1  6
  5 20  1  0
  5 21  1  0
 10 22  1  0
 10 23  1  0
 11 24  1  0
M  END
$$$$

     RDKit          3D

 24 24  0  0  0  0  0  0  0  0999 V2000
   -1.7638    1.6456   -0.0740 C   0  0  0  0  0  0  0  0  0  0  0  0
   -1.4707    0.6431   -1.1609 C   0  0  0  0  0  0  0  0  0  0  0  0
   -0.7503   -0.5932   -0.6496 C   0  0  2  0  0  0  0  0  0  0  0  0
   -1.5550   -1.2910    0.3756 C   0  0  0  0  0  0  0  0  0  0  0  0
   -1.0295   -1.7161    1.6267 N   0  0  0  0  0  0  0  0  0  0  0  0
   -2.7633   -1.5078    0.1026 O   0  0  0  0  0  0  0  0  0  0  0  0
    0.6136   -0.3686   -0.2970 N   0  0  0  0  0  0  0  0  0  0  0  0
    1.0921    0.4501    0.7707 C   0  0  0  0  0  0  0  0  0  0  0  0
    0.4952    0.7774    1.8246 O   0  0  0  0  0  0  0  0  0  0  0  0
    2.4876    0.8475    0.3647 C   0  0  0  0  0  0  0  0  0  0  0  0
    2.9336   -0.4119   -0.2494 N   0  0  0  0  0  0  0  0  0  0  0  0
    1.7926   -0.9103   -0.9367 C   0  0  0  0  0  0  0  0  0  0  0  0
    1.8163   -1.6843   -1.9244 O   0  0  0  0  0  0  0  0  0  0  0  0
   -2.6445    2.2869   -0.3627 H   0  0  0  0  0  0  0  0  0  0  0  0
   -0.8879    2.3162    0.0280 H   0  0  0  0  0  0  0  0  0  0  0  0
   -2.0401    1.1777    0.8799 H   0  0  0  0  0  0  0  0  0  0  0  0
   -2.4459    0.3605   -1.6077 H   0  0  0  0  0  0  0  0  0  0  0  0
   -0.8961    1.1207   -1.9846 H   0  0  0  0  0  0  0  0  0  0  0  0
   -0.7411   -1.3016   -1.5366 H   0  0  0  0  0  0  0  0  0  0  0  0
   -0.3803   -2.5337    1.6091 H   0  0  0  0  0  0  0  0  0  0  0  0
   -1.2841   -1.2334    2.4998 H   0  0  0  0  0  0  0  0  0  0  0  0
    2.4218    1.6577   -0.3728 H   0  0  0  0  0  0  0  0  0  0  0  0
    3.1089    1.0927    1.2516 H   0  0  0  0  0  0  0  0  0  0  0  0
    3.8909   -0.8242   -0.1769 H   0  0  0  0  0  0  0  0  0  0  0  0
  1  2  1  0
  2  3  1  0
  3  4  1  0
  4  5  1  0
  4  6  2  0
  3  7  1  0
  7  8  1  0
  8  9  2  0
  8 10  1  0
 10 11  1  0
 11 12  1  0
 12 13  2  0
 12  7  1  0
  1 14  1  0
  1 15  1  0
  1 16  1  0
  2 17  1  0
  2 18  1  0
  3 19  1  6
  5 20  1  0
  5 21  1  0
 10 22  1  0
 10 23  1  0
 11 24  1  0
M  END
$$$$
