
     RDKit          3D

 24 24  0  0  0  0  0  0  0  0999 V2000
    3.9164    1.0980    0.4412 C   0  0  0  0  0  0  0  0  0  0  0  0
    2.6209    0.7881   -0.1158 O   0  0  0  0  0  0  0  0  0  0  0  0
    1.8831   -0.2410    0.4018 C   0  0  0  0  0  0  0  0  0  0  0  0
    2.3037   -0.8797    1.3370 O   0  0  0  0  0  0  0  0  0  0  0  0
    0.5289   -0.5053   -0.2703 C   0  0  2  0  0  0  0  0  0  0  0  0
   -0.2950    0.6080   -0.3197 N   0  0  0  0  0  0  0  0  0  0  0  0
   -1.6804    0.3233    0.0708 C   0  0  1  0  0  0  0  0  0  0  0  0
   -2.6564    1.3997   -0.1909 C   0  0  0  0  0  0  0  0  0  0  0  0
   -2.0946   -1.0171   -0.5688 C   0  0  0  0  0  0  0  0  0  0  0  0
   -1.4135   -2.0058    0.2483 N   0  0  0  0  0  0  0  0  0  0  0  0
   -0.0745   -1.6240    0.5834 C   0  0  0  0  0  0  0  0  0  0  0  0
    0.5955   -2.1488    1.5030 O   0  0  0  0  0  0  0  0  0  0  0  0
    4.5411    1.7032   -0.2272 H   0  0  0  0  0  0  0  0  0  0  0  0
    3.7620    1.7073    1.3908 H   0  0  0  0  0  0  0  0  0  0  0  0
    4.4519    0.1388    0.6650 H   0  0  0  0  0  0  0  0  0  0  0  0
    0.7093   -0.9201   -1.2495 H   0  0  0  0  0  0  0  0  0  0  0  0
    0.0653    1.4605    0.0730 H   0  0  0  0  0  0  0  0  0  0  0  0
   -1.7180    0.1114    1.1921 H   0  0  0  0  0  0  0  0  0  0  0  0
   -2.1140    2.2584   -0.6194 H   0  0  0  0  0  0  0  0  0  0  0  0
   -3.4764    1.0546   -0.8420 H   0  0  0  0  0  0  0  0  0  0  0  0
   -3.1230    1.7540    0.7663 H   0  0  0  0  0  0  0  0  0  0  0  0
   -3.1975   -1.1204   -0.5219 H   0  0  0  0  0  0  0  0  0  0  0  0
   -1.6907   -1.1223   -1.5796 H   0  0  0  0  0  0  0  0  0  0  0  0
   -1.8443   -2.8207    0.6636 H   0  0  0  0  0  0  0  0  0  0  0  0
  1  2  1  0
  2  3  1  0
  3  4  2  0
  3  5  1  0
  5  6  1  0
  6  7  1  0
  7  8  1  0
  7  9  1  0
  9 10  1  0
 10 11  1  0
 11 12  2  0
 11  5  1  0
  1 13  1  0
  1 14  1  0
  1 15  1  0
  5 16  1  6
  6 17  1  0
  7 18  1  1
  8 19  1  0
  8 20  1  0
  8 21  1  0
  9 22  1  0
  9 23  1  0
 10 24  1  0
M  END
$$$$

     RDKit          3D

 24 24  0  0  0  0  0  0  0  0999 V2000
    4.2287    0.4397    0.2103 C   0  0  0  0  0  0  0  0  0  0  0  0
    2.9756    0.4687   -0.4359 O   0  0  0  0  0  0  0  0  0  0  0  0
    1.7842    0.3130    0.1469 C   0  0  0  0  0  0  0  0  0  0  0  0
    1.8192    0.1190    1.4733 O   0  0  0  0  0  0  0  0  0  0  0  0
    0.4144    0.3206   -0.4474 C   0  0  2  0  0  0  0  0  0  0  0  0
   -0.5575    0.7135    0.4956 N   0  0  0  0  0  0  0  0  0  0  0  0
   -1.7643    0.0272    0.6062 C   0  0  1  0  0  0  0  0  0  0  0  0
   -2.9143    1.0309    0.3745 C   0  0  0  0  0  0  0  0  0  0  0  0
   -2.0522   -1.1463   -0.2332 C   0  0  0  0  0  0  0  0  0  0  0  0
   -0.8467   -1.8307   -0.6774 N   0  0  0  0  0  0  0  0  0  0  0  0
    0.2273   -0.9925   -1.0609 C   0  0  0  0  0  0  0  0  0  0  0  0
    1.0248   -1.3926   -1.9440 O   0  0  0  0  0  0  0  0  0  0  0  0
    4.6776    1.4391    0.2833 H   0  0  0  0  0  0  0  0  0  0  0  0
    4.8655   -0.2918   -0.3250 H   0  0  0  0  0  0  0  0  0  0  0  0
    4.0549   -0.0190    1.2332 H   0  0  0  0  0  0  0  0  0  0  0  0
    0.4485    1.0675   -1.2796 H   0  0  0  0  0  0  0  0  0  0  0  0
   -0.6262    1.7575    0.5850 H   0  0  0  0  0  0  0  0  0  0  0  0
   -1.9020   -0.2679    1.6952 H   0  0  0  0  0  0  0  0  0  0  0  0
   -3.7693    0.5239   -0.1440 H   0  0  0  0  0  0  0  0  0  0  0  0
   -2.6102    1.8438   -0.3177 H   0  0  0  0  0  0  0  0  0  0  0  0
   -3.3112    1.4383    1.2858 H   0  0  0  0  0  0  0  0  0  0  0  0
   -2.7096   -1.8641    0.2960 H   0  0  0  0  0  0  0  0  0  0  0  0
   -2.6511   -0.8220   -1.1209 H   0  0  0  0  0  0  0  0  0  0  0  0
   -0.8060   -2.8758   -0.6994 H   0  0  0  0  0  0  0  0  0  0  0  0
  1  2  1  0
  2  3  1  0
  3  4  2  0
  3  5  1  0
  5  6  1  0
  6  7  1  0
  7  8  1  0
  7  9  1  0
  9 10  1  0
 10 11  1  0
 11 12  2  0
 11  5  1  0
  1 13  1  0
  1 14  1  0
  1 15  1  0
  5 16  1  6
  6 17  1  0
  7 18  1  1
  8 19  1  0
  8 20  1  0
  8 21  1  0
  9 22  1  0
  9 23  1  0
 10 24  1  0
M  END
$$$$

     RDKit          3D

 24 24  0  0  0  0  0  0  0  0999 V2000
    4.0724    0.2791   -0.3415 C   0  0  0  0  0  0  0  0  0  0  0  0
    2.8083   -0.2448   -0.6160 O   0  0  0  0  0  0  0  0  0  0  0  0
    1.6280    0.4724   -0.6205 C   0  0  0  0  0  0  0  0  0  0  0  0
    1.6690    1.6915   -0.3607 O   0  0  0  0  0  0  0  0  0  0  0  0
    0.3795   -0.2601   -0.9365 C   0  0  2  0  0  0  0  0  0  0  0  0
   -0.7550    0.6019   -0.9048 N   0  0  0  0  0  0  0  0  0  0  0  0
   -1.5966    0.4608    0.2396 C   0  0  1  0  0  0  0  0  0  0  0  0
   -2.7553    1.4267    0.1113 C   0  0  0  0  0  0  0  0  0  0  0  0
   -2.1107   -0.9693    0.3562 C   0  0  0  0  0  0  0  0  0  0  0  0
   -0.9446   -1.8076    0.5497 N   0  0  0  0  0  0  0  0  0  0  0  0
    0.2711   -1.4301   -0.0488 C   0  0  0  0  0  0  0  0  0  0  0  0
    1.3002   -2.1162    0.1831 O   0  0  0  0  0  0  0  0  0  0  0  0
    4.0628    1.0780    0.4334 H   0  0  0  0  0  0  0  0  0  0  0  0
    4.6174    0.6360   -1.2257 H   0  0  0  0  0  0  0  0  0  0  0  0
    4.6837   -0.5567    0.0993 H   0  0  0  0  0  0  0  0  0  0  0  0
    0.4834   -0.6518   -1.9834 H   0  0  0  0  0  0  0  0  0  0  0  0
   -1.2633    0.7021   -1.8003 H   0  0  0  0  0  0  0  0  0  0  0  0
   -0.9907    0.6860    1.1526 H   0  0  0  0  0  0  0  0  0  0  0  0
   -2.4807    2.4366    0.4818 H   0  0  0  0  0  0  0  0  0  0  0  0
   -3.0579    1.4854   -0.9567 H   0  0  0  0  0  0  0  0  0  0  0  0
   -3.6179    1.0043    0.6946 H   0  0  0  0  0  0  0  0  0  0  0  0
   -2.8326   -1.0432    1.1712 H   0  0  0  0  0  0  0  0  0  0  0  0
   -2.5301   -1.2249   -0.6335 H   0  0  0  0  0  0  0  0  0  0  0  0
   -1.0405   -2.6561    1.1205 H   0  0  0  0  0  0  0  0  0  0  0  0
  1  2  1  0
  2  3  1  0
  3  4  2  0
  3  5  1  0
  5  6  1  0
  6  7  1  0
  7  8  1  0
  7  9  1  0
  9 10  1  0
 10 11  1  0
 11 12  2  0
 11  5  1  0
  1 13  1  0
  1 14  1  0
  1 15  1  0
  5 16  1  6
  6 17  1  0
  7 18  1  1
  8 19  1  0
  8 20  1  0
  8 21  1  0
  9 22  1  0
  9 23  1  0
 10 24  1  0
M  END
$$$$

     RDKit          3D

 24 24  0  0  0  0  0  0  0  0999 V2000
    3.8009    0.5704   -0.0154 C   0  0  0  0  0  0  0  0  0  0  0  0
    2.4623    0.3622   -0.4045 O   0  0  0  0  0  0  0  0  0  0  0  0
    1.8100   -0.8474   -0.2081 C   0  0  0  0  0  0  0  0  0  0  0  0
    2.4328   -1.8003    0.2499 O   0  0  0  0  0  0  0  0  0  0  0  0
    0.3264   -0.8548   -0.5523 C   0  0  2  0  0  0  0  0  0  0  0  0
   -0.1688    0.4420   -0.2303 N   0  0  0  0  0  0  0  0  0  0  0  0
   -1.4549    0.7149    0.1767 C   0  0  1  0  0  0  0  0  0  0  0  0
   -2.1387    1.7473   -0.6664 C   0  0  0  0  0  0  0  0  0  0  0  0
   -2.3099   -0.5605    0.1346 C   0  0  0  0  0  0  0  0  0  0  0  0
   -1.5631   -1.4909    0.9917 N   0  0  0  0  0  0  0  0  0  0  0  0
   -0.2408   -1.7330    0.6298 C   0  0  0  0  0  0  0  0  0  0  0  0
    0.4718   -2.5868    1.1448 O   0  0  0  0  0  0  0  0  0  0  0  0
    3.8953    1.7035   -0.0194 H   0  0  0  0  0  0  0  0  0  0  0  0
    3.8267    0.3978    1.1343 H   0  0  0  0  0  0  0  0  0  0  0  0
    4.5681    0.0484   -0.5079 H   0  0  0  0  0  0  0  0  0  0  0  0
    0.1102   -1.2623   -1.4495 H   0  0  0  0  0  0  0  0  0  0  0  0
    0.4107    1.2295   -0.5842 H   0  0  0  0  0  0  0  0  0  0  0  0
   -1.4994    1.0995    1.2495 H   0  0  0  0  0  0  0  0  0  0  0  0
   -2.3609    1.3106   -1.6605 H   0  0  0  0  0  0  0  0  0  0  0  0
   -3.1204    1.9933   -0.1541 H   0  0  0  0  0  0  0  0  0  0  0  0
   -1.5346    2.6719   -0.7629 H   0  0  0  0  0  0  0  0  0  0  0  0
   -3.3062   -0.3408    0.5618 H   0  0  0  0  0  0  0  0  0  0  0  0
   -2.4037   -0.9133   -0.8935 H   0  0  0  0  0  0  0  0  0  0  0  0
   -2.0138   -1.9011    1.8359 H   0  0  0  0  0  0  0  0  0  0  0  0
  1  2  1  0
  2  3  1  0
  3  4  2  0
  3  5  1  0
  5  6  1  0
  6  7  1  0
  7  8  1  0
  7  9  1  0
  9 10  1  0
 10 11  1  0
 11 12  2  0
 11  5  1  0
  1 13  1  0
  1 14  1  0
  1 15  1  0
  5 16  1  6
  6 17  1  0
  7 18  1  1
  8 19  1  0
  8 20  1  0
  8 21  1  0
  9 22  1  0
  9 23  1  0
 10 24  1  0
M  END
$$$$

     RDKit          3D

 24 24  0  0  0  0  0  0  0  0999 V2000
   -4.2292   -0.3240   -0.2209 C   0  0  0  0  0  0  0  0  0  0  0  0
   -2.9483    0.1565   -0.5892 O   0  0  0  0  0  0  0  0  0  0  0  0
   -1.8138   -0.4136   -0.0299 C   0  0  0  0  0  0  0  0  0  0  0  0
   -1.9809   -1.3410    0.7874 O   0  0  0  0  0  0  0  0  0  0  0  0
   -0.4394    0.0302   -0.3612 C   0  0  2  0  0  0  0  0  0  0  0  0
    0.5208   -0.7343    0.3632 N   0  0  0  0  0  0  0  0  0  0  0  0
    1.8384   -0.2047    0.4176 C   0  0  1  0  0  0  0  0  0  0  0  0
    2.8847   -1.2761    0.1410 C   0  0  0  0  0  0  0  0  0  0  0  0
    2.1125    0.9565   -0.4750 C   0  0  0  0  0  0  0  0  0  0  0  0
    1.0921    1.9624   -0.2233 N   0  0  0  0  0  0  0  0  0  0  0  0
   -0.2366    1.4693   -0.0490 C   0  0  0  0  0  0  0  0  0  0  0  0
   -1.1914    2.1867    0.3424 O   0  0  0  0  0  0  0  0  0  0  0  0
   -4.1601   -0.6552    0.8481 H   0  0  0  0  0  0  0  0  0  0  0  0
   -4.9082    0.5689   -0.2534 H   0  0  0  0  0  0  0  0  0  0  0  0
   -4.5912   -1.1225   -0.8817 H   0  0  0  0  0  0  0  0  0  0  0  0
   -0.3182   -0.0926   -1.4728 H   0  0  0  0  0  0  0  0  0  0  0  0
    0.4611   -1.7550    0.2227 H   0  0  0  0  0  0  0  0  0  0  0  0
    2.0260    0.1400    1.4751 H   0  0  0  0  0  0  0  0  0  0  0  0
    3.8133   -0.8240   -0.2432 H   0  0  0  0  0  0  0  0  0  0  0  0
    3.1027   -1.8073    1.1097 H   0  0  0  0  0  0  0  0  0  0  0  0
    2.4583   -1.9854   -0.5716 H   0  0  0  0  0  0  0  0  0  0  0  0
    3.0863    1.3987   -0.1820 H   0  0  0  0  0  0  0  0  0  0  0  0
    2.1449    0.6841   -1.5445 H   0  0  0  0  0  0  0  0  0  0  0  0
    1.2763    2.9821   -0.1664 H   0  0  0  0  0  0  0  0  0  0  0  0
  1  2  1  0
  2  3  1  0
  3  4  2  0
  3  5  1  0
  5  6  1  0
  6  7  1  0
  7  8  1  0
  7  9  1  0
  9 10  1  0
 10 11  1  0
 11 12  2  0
 11  5  1  0
  1 13  1  0
  1 14  1  0
  1 15  1  0
  5 16  1  6
  6 17  1  0
  7 18  1  1
  8 19  1  0
  8 20  1  0
  8 21  1  0
  9 22  1  0
  9 23  1  0
 10 24  1  0
M  END
$$$$

     RDKit          3D

 24 24  0  0  0  0  0  0  0  0999 V2000
    3.9047    0.6768    0.5609 C   0  0  0  0  0  0  0  0  0  0  0  0
    2.8890   -0.2244    0.1607 O   0  0  0  0  0  0  0  0  0  0  0  0
    1.6729    0.3243   -0.2300 C   0  0  0  0  0  0  0  0  0  0  0  0
    1.5162    1.5746   -0.2163 O   0  0  0  0  0  0  0  0  0  0  0  0
    0.5577   -0.5343   -0.6623 C   0  0  2  0  0  0  0  0  0  0  0  0
   -0.5572    0.2230   -1.0067 N   0  0  0  0  0  0  0  0  0  0  0  0
   -1.5871    0.3368   -0.0444 C   0  0  1  0  0  0  0  0  0  0  0  0
   -2.6094    1.3711   -0.3350 C   0  0  0  0  0  0  0  0  0  0  0  0
   -2.2002   -1.0637    0.1017 C   0  0  0  0  0  0  0  0  0  0  0  0
   -1.1468   -1.8828    0.6886 N   0  0  0  0  0  0  0  0  0  0  0  0
    0.1939   -1.5230    0.4124 C   0  0  0  0  0  0  0  0  0  0  0  0
    1.1506   -2.0268    1.0686 O   0  0  0  0  0  0  0  0  0  0  0  0
    4.6763    0.1912    1.1965 H   0  0  0  0  0  0  0  0  0  0  0  0
    3.4656    1.5062    1.1816 H   0  0  0  0  0  0  0  0  0  0  0  0
    4.3539    1.1555   -0.3388 H   0  0  0  0  0  0  0  0  0  0  0  0
    0.8850   -1.1463   -1.5444 H   0  0  0  0  0  0  0  0  0  0  0  0
   -0.5816    0.7822   -1.8334 H   0  0  0  0  0  0  0  0  0  0  0  0
   -1.1011    0.5617    0.9453 H   0  0  0  0  0  0  0  0  0  0  0  0
   -3.1343    1.6292    0.6286 H   0  0  0  0  0  0  0  0  0  0  0  0
   -2.1106    2.2813   -0.6911 H   0  0  0  0  0  0  0  0  0  0  0  0
   -3.3894    1.0106   -1.0507 H   0  0  0  0  0  0  0  0  0  0  0  0
   -2.3367   -1.4730   -0.9419 H   0  0  0  0  0  0  0  0  0  0  0  0
   -3.1200   -1.0566    0.6794 H   0  0  0  0  0  0  0  0  0  0  0  0
   -1.3916   -2.6937    1.2828 H   0  0  0  0  0  0  0  0  0  0  0  0
  1  2  1  0
  2  3  1  0
  3  4  2  0
  3  5  1  0
  5  6  1  0
  6  7  1  0
  7  8  1  0
  7  9  1  0
  9 10  1  0
 10 11  1  0
 11 12  2  0
 11  5  1  0
  1 13  1  0
  1 14  1  0
  1 15  1  0
  5 16  1  6
  6 17  1  0
  7 18  1  1
  8 19  1  0
  8 20  1  0
  8 21  1  0
  9 22  1  0
  9 23  1  0
 10 24  1  0
M  END
$$$$

     RDKit          3D

 24 24  0  0  0  0  0  0  0  0999 V2000
   -3.5441    0.1962    0.7379 C   0  0  0  0  0  0  0  0  0  0  0  0
   -2.1232    0.1131    0.7695 O   0  0  0  0  0  0  0  0  0  0  0  0
   -1.5296   -1.0358    0.2878 C   0  0  0  0  0  0  0  0  0  0  0  0
   -2.1718   -2.0210   -0.1341 O   0  0  0  0  0  0  0  0  0  0  0  0
   -0.0228   -1.1333    0.2590 C   0  0  2  0  0  0  0  0  0  0  0  0
    0.5827   -0.3694    1.2849 N   0  0  0  0  0  0  0  0  0  0  0  0
    1.3527    0.7461    0.7344 C   0  0  1  0  0  0  0  0  0  0  0  0
    2.7732    0.3267    0.5151 C   0  0  0  0  0  0  0  0  0  0  0  0
    0.8464    1.3276   -0.5539 C   0  0  0  0  0  0  0  0  0  0  0  0
    0.5536    0.3400   -1.5883 N   0  0  0  0  0  0  0  0  0  0  0  0
    0.3218   -0.9762   -1.1280 C   0  0  0  0  0  0  0  0  0  0  0  0
    0.4006   -1.9652   -1.8756 O   0  0  0  0  0  0  0  0  0  0  0  0
   -3.7824    1.1445    0.1716 H   0  0  0  0  0  0  0  0  0  0  0  0
   -3.9602   -0.6442    0.1301 H   0  0  0  0  0  0  0  0  0  0  0  0
   -4.0130    0.1869    1.7136 H   0  0  0  0  0  0  0  0  0  0  0  0
    0.1356   -2.2560    0.5258 H   0  0  0  0  0  0  0  0  0  0  0  0
    1.2162   -0.8912    1.8614 H   0  0  0  0  0  0  0  0  0  0  0  0
    1.3471    1.5514    1.4850 H   0  0  0  0  0  0  0  0  0  0  0  0
    2.8181   -0.2685   -0.4178 H   0  0  0  0  0  0  0  0  0  0  0  0
    3.2144   -0.1499    1.3889 H   0  0  0  0  0  0  0  0  0  0  0  0
    3.3572    1.2731    0.2836 H   0  0  0  0  0  0  0  0  0  0  0  0
    1.7160    1.9385   -0.9795 H   0  0  0  0  0  0  0  0  0  0  0  0
    0.0049    2.0074   -0.4179 H   0  0  0  0  0  0  0  0  0  0  0  0
    0.5062    0.5592   -2.5930 H   0  0  0  0  0  0  0  0  0  0  0  0
  1  2  1  0
  2  3  1  0
  3  4  2  0
  3  5  1  0
  5  6  1  0
  6  7  1  0
  7  8  1  0
  7  9  1  0
  9 10  1  0
 10 11  1  0
 11 12  2  0
 11  5  1  0
  1 13  1  0
  1 14  1  0
  1 15  1  0
  5 16  1  1
  6 17  1  0
  7 18  1  1
  8 19  1  0
  8 20  1  0
  8 21  1  0
  9 22  1  0
  9 23  1  0
 10 24  1  0
M  END
$$$$

     RDKit          3D

 24 24  0  0  0  0  0  0  0  0999 V2000
    4.0420    0.4982   -0.0522 C   0  0  0  0  0  0  0  0  0  0  0  0
    2.6373    0.5055   -0.1322 O   0  0  0  0  0  0  0  0  0  0  0  0
    1.8438   -0.6798   -0.0339 C   0  0  0  0  0  0  0  0  0  0  0  0
    2.3747   -1.6977    0.1689 O   0  0  0  0  0  0  0  0  0  0  0  0
    0.4265   -0.4141   -0.2678 C   0  0  2  0  0  0  0  0  0  0  0  0
   -0.2661    0.2449    0.7903 N   0  0  0  0  0  0  0  0  0  0  0  0
   -1.7072    0.2851    0.5643 C   0  0  1  0  0  0  0  0  0  0  0  0
   -2.3464    1.6144    0.7680 C   0  0  0  0  0  0  0  0  0  0  0  0
   -2.0965   -0.2268   -0.8300 C   0  0  0  0  0  0  0  0  0  0  0  0
   -1.6451   -1.6155   -0.7823 N   0  0  0  0  0  0  0  0  0  0  0  0
   -0.3000   -1.7658   -0.3329 C   0  0  0  0  0  0  0  0  0  0  0  0
    0.2073   -2.8327   -0.0098 O   0  0  0  0  0  0  0  0  0  0  0  0
    4.5362    0.2418    0.8597 H   0  0  0  0  0  0  0  0  0  0  0  0
    4.4258   -0.1470   -0.9160 H   0  0  0  0  0  0  0  0  0  0  0  0
    4.3591    1.5401   -0.3846 H   0  0  0  0  0  0  0  0  0  0  0  0
    0.2657    0.0547   -1.2361 H   0  0  0  0  0  0  0  0  0  0  0  0
    0.1108    1.2347    0.9381 H   0  0  0  0  0  0  0  0  0  0  0  0
   -2.1642   -0.4413    1.2736 H   0  0  0  0  0  0  0  0  0  0  0  0
   -2.2193    2.3146   -0.1044 H   0  0  0  0  0  0  0  0  0  0  0  0
   -3.4533    1.4210    0.8854 H   0  0  0  0  0  0  0  0  0  0  0  0
   -1.9400    2.1343    1.6657 H   0  0  0  0  0  0  0  0  0  0  0  0
   -3.2054   -0.1705   -0.9021 H   0  0  0  0  0  0  0  0  0  0  0  0
   -1.6308    0.3102   -1.6433 H   0  0  0  0  0  0  0  0  0  0  0  0
   -2.2551   -2.4083   -0.9934 H   0  0  0  0  0  0  0  0  0  0  0  0
  1  2  1  0
  2  3  1  0
  3  4  2  0
  3  5  1  0
  5  6  1  0
  6  7  1  0
  7  8  1  0
  7  9  1  0
  9 10  1  0
 10 11  1  0
 11 12  2  0
 11  5  1  0
  1 13  1  0
  1 14  1  0
  1 15  1  0
  5 16  1  6
  6 17  1  0
  7 18  1  1
  8 19  1  0
  8 20  1  0
  8 21  1  0
  9 22  1  0
  9 23  1  0
 10 24  1  0
M  END
$$$$
