
     RDKit          3D

 25 26  0  0  0  0  0  0  0  0999 V2000
   -2.7414   -0.9063   -0.1312 O   0  0  0  0  0  0  0  0  0  0  0  0
   -2.0166    0.0861    0.5330 C   0  0  1  0  0  0  0  0  0  0  0  0
   -1.0619   -0.5813    1.5020 C   0  0  0  0  0  0  0  0  0  0  0  0
    0.1197   -0.9374    0.7320 N   0  0  0  0  0  0  0  0  0  0  0  0
    1.3260   -0.5403    1.3748 C   0  0  0  0  0  0  0  0  0  0  0  0
    2.0160    0.6071    0.7790 C   0  0  0  0  0  0  0  0  0  0  0  0
    1.9650    0.8163   -0.5316 C   0  0  0  0  0  0  0  0  0  0  0  0
    1.1879   -0.1538   -1.3453 C   0  0  2  0  0  0  0  0  0  0  0  0
    0.8748    0.3311   -2.5979 O   0  0  0  0  0  0  0  0  0  0  0  0
   -0.0679   -0.4747   -0.5987 C   0  0  2  0  0  0  0  0  0  0  0  0
   -0.9989    0.6830   -0.4504 C   0  0  1  0  0  0  0  0  0  0  0  0
   -1.5866    1.1047   -1.6126 O   0  0  0  0  0  0  0  0  0  0  0  0
   -2.3622   -1.7827    0.0591 H   0  0  0  0  0  0  0  0  0  0  0  0
   -2.6398    0.8483    0.9949 H   0  0  0  0  0  0  0  0  0  0  0  0
   -0.7914    0.2101    2.2582 H   0  0  0  0  0  0  0  0  0  0  0  0
   -1.4960   -1.4720    1.9751 H   0  0  0  0  0  0  0  0  0  0  0  0
    1.0919   -0.3063    2.4482 H   0  0  0  0  0  0  0  0  0  0  0  0
    2.0056   -1.4390    1.4007 H   0  0  0  0  0  0  0  0  0  0  0  0
    2.5685    1.2831    1.4200 H   0  0  0  0  0  0  0  0  0  0  0  0
    2.4625    1.6532   -1.0053 H   0  0  0  0  0  0  0  0  0  0  0  0
    1.7802   -1.0971   -1.4169 H   0  0  0  0  0  0  0  0  0  0  0  0
    1.4099   -0.1558   -3.2974 H   0  0  0  0  0  0  0  0  0  0  0  0
   -0.6151   -1.2777   -1.1671 H   0  0  0  0  0  0  0  0  0  0  0  0
   -0.4765    1.4770    0.1195 H   0  0  0  0  0  0  0  0  0  0  0  0
   -1.9535    2.0243   -1.4420 H   0  0  0  0  0  0  0  0  0  0  0  0
  1  2  1  0
  2  3  1  0
  3  4  1  0
  4  5  1  0
  5  6  1  0
  6  7  2  0
  7  8  1  0
  8  9  1  0
  8 10  1  0
 10 11  1  0
 11 12  1  0
 11  2  1  0
 10  4  1  0
  1 13  1  0
  2 14  1  1
  3 15  1  0
  3 16  1  0
  5 17  1  0
  5 18  1  0
  6 19  1  0
  7 20  1  0
  8 21  1  6
  9 22  1  0
 10 23  1  6
 11 24  1  1
 12 25  1  0
M  END
$$$$

     RDKit          3D

 25 26  0  0  0  0  0  0  0  0999 V2000
   -2.1697    0.6866    1.5417 O   0  0  0  0  0  0  0  0  0  0  0  0
   -2.0793   -0.2815    0.5420 C   0  0  1  0  0  0  0  0  0  0  0  0
   -1.6470    0.3794   -0.7496 C   0  0  0  0  0  0  0  0  0  0  0  0
   -0.2460    0.1785   -0.9027 N   0  0  0  0  0  0  0  0  0  0  0  0
    0.4934    1.3479   -1.2620 C   0  0  0  0  0  0  0  0  0  0  0  0
    1.9505    1.2227   -0.9493 C   0  0  0  0  0  0  0  0  0  0  0  0
    2.4679    0.2229   -0.2619 C   0  0  0  0  0  0  0  0  0  0  0  0
    1.5707   -0.8440    0.2356 C   0  0  2  0  0  0  0  0  0  0  0  0
    1.5207   -1.8259   -0.7746 O   0  0  0  0  0  0  0  0  0  0  0  0
    0.2328   -0.2188    0.4314 C   0  0  2  0  0  0  0  0  0  0  0  0
   -0.8443   -1.1264    0.8894 C   0  0  1  0  0  0  0  0  0  0  0  0
   -0.7797   -1.3900    2.2389 O   0  0  0  0  0  0  0  0  0  0  0  0
   -2.0623    1.5917    1.1405 H   0  0  0  0  0  0  0  0  0  0  0  0
   -2.9787   -0.8873    0.4422 H   0  0  0  0  0  0  0  0  0  0  0  0
   -2.1814   -0.1727   -1.5677 H   0  0  0  0  0  0  0  0  0  0  0  0
   -1.9619    1.4411   -0.7871 H   0  0  0  0  0  0  0  0  0  0  0  0
    0.4406    1.5807   -2.3550 H   0  0  0  0  0  0  0  0  0  0  0  0
    0.0506    2.2058   -0.6870 H   0  0  0  0  0  0  0  0  0  0  0  0
    2.5754    2.0458   -1.3440 H   0  0  0  0  0  0  0  0  0  0  0  0
    3.5245    0.2061   -0.0797 H   0  0  0  0  0  0  0  0  0  0  0  0
    1.9650   -1.3543    1.1344 H   0  0  0  0  0  0  0  0  0  0  0  0
    2.4294   -2.2269   -0.8044 H   0  0  0  0  0  0  0  0  0  0  0  0
    0.2974    0.6902    1.0320 H   0  0  0  0  0  0  0  0  0  0  0  0
   -0.8951   -2.0359    0.2628 H   0  0  0  0  0  0  0  0  0  0  0  0
   -1.6735   -1.4359    2.6343 H   0  0  0  0  0  0  0  0  0  0  0  0
  1  2  1  0
  2  3  1  0
  3  4  1  0
  4  5  1  0
  5  6  1  0
  6  7  2  0
  7  8  1  0
  8  9  1  0
  8 10  1  0
 10 11  1  0
 11 12  1  0
 11  2  1  0
 10  4  1  0
  1 13  1  0
  2 14  1  6
  3 15  1  0
  3 16  1  0
  5 17  1  0
  5 18  1  0
  6 19  1  0
  7 20  1  0
  8 21  1  1
  9 22  1  0
 10 23  1  1
 11 24  1  6
 12 25  1  0
M  END
$$$$

     RDKit          3D

 25 26  0  0  0  0  0  0  0  0999 V2000
    2.5692   -0.3034   -1.2824 O   0  0  0  0  0  0  0  0  0  0  0  0
    2.1869    0.2391   -0.0640 C   0  0  1  0  0  0  0  0  0  0  0  0
    1.3037    1.4726   -0.2892 C   0  0  0  0  0  0  0  0  0  0  0  0
   -0.0014    0.9624   -0.5605 N   0  0  0  0  0  0  0  0  0  0  0  0
   -1.0698    1.6341    0.1096 C   0  0  0  0  0  0  0  0  0  0  0  0
   -2.3370    1.0538   -0.3948 C   0  0  0  0  0  0  0  0  0  0  0  0
   -2.4407   -0.2612   -0.4501 C   0  0  0  0  0  0  0  0  0  0  0  0
   -1.2731   -1.0896   -0.0001 C   0  0  2  0  0  0  0  0  0  0  0  0
   -1.3404   -1.3176    1.3736 O   0  0  0  0  0  0  0  0  0  0  0  0
   -0.0072   -0.4514   -0.4334 C   0  0  2  0  0  0  0  0  0  0  0  0
    1.1484   -0.7119    0.5323 C   0  0  1  0  0  0  0  0  0  0  0  0
    1.5766   -2.0133    0.5080 O   0  0  0  0  0  0  0  0  0  0  0  0
    2.4972   -1.2878   -1.2183 H   0  0  0  0  0  0  0  0  0  0  0  0
    3.0130    0.4411    0.6147 H   0  0  0  0  0  0  0  0  0  0  0  0
    1.7139    1.9629   -1.2008 H   0  0  0  0  0  0  0  0  0  0  0  0
    1.3608    2.1709    0.5442 H   0  0  0  0  0  0  0  0  0  0  0  0
   -1.0271    1.5039    1.2231 H   0  0  0  0  0  0  0  0  0  0  0  0
   -1.0143    2.7178   -0.0657 H   0  0  0  0  0  0  0  0  0  0  0  0
   -3.1263    1.7112   -0.6979 H   0  0  0  0  0  0  0  0  0  0  0  0
   -3.3560   -0.7204   -0.8150 H   0  0  0  0  0  0  0  0  0  0  0  0
   -1.3814   -2.0977   -0.4829 H   0  0  0  0  0  0  0  0  0  0  0  0
   -2.0837   -1.9726    1.5216 H   0  0  0  0  0  0  0  0  0  0  0  0
    0.3220   -0.9387   -1.3983 H   0  0  0  0  0  0  0  0  0  0  0  0
    0.9196   -0.3246    1.5432 H   0  0  0  0  0  0  0  0  0  0  0  0
    1.8472   -2.3794    1.3833 H   0  0  0  0  0  0  0  0  0  0  0  0
  1  2  1  0
  2  3  1  0
  3  4  1  0
  4  5  1  0
  5  6  1  0
  6  7  2  0
  7  8  1  0
  8  9  1  0
  8 10  1  0
 10 11  1  0
 11 12  1  0
 11  2  1  0
 10  4  1  0
  1 13  1  0
  2 14  1  1
  3 15  1  0
  3 16  1  0
  5 17  1  0
  5 18  1  0
  6 19  1  0
  7 20  1  0
  8 21  1  6
  9 22  1  0
 10 23  1  6
 11 24  1  1
 12 25  1  0
M  END
$$$$

     RDKit          3D

 25 26  0  0  0  0  0  0  0  0999 V2000
   -2.5473    0.4262    0.9845 O   0  0  0  0  0  0  0  0  0  0  0  0
   -2.2028    0.1195   -0.3298 C   0  0  1  0  0  0  0  0  0  0  0  0
   -1.2807    1.2204   -0.8109 C   0  0  0  0  0  0  0  0  0  0  0  0
    0.0563    0.7317   -0.7442 N   0  0  0  0  0  0  0  0  0  0  0  0
    1.0119    1.6688   -0.2382 C   0  0  0  0  0  0  0  0  0  0  0  0
    2.2020    1.0266    0.3638 C   0  0  0  0  0  0  0  0  0  0  0  0
    2.3537   -0.2546    0.5742 C   0  0  0  0  0  0  0  0  0  0  0  0
    1.2326   -1.1857    0.1782 C   0  0  2  0  0  0  0  0  0  0  0  0
    1.5634   -1.6732   -1.0756 O   0  0  0  0  0  0  0  0  0  0  0  0
   -0.0150   -0.3791    0.1974 C   0  0  2  0  0  0  0  0  0  0  0  0
   -1.2413   -1.0779   -0.2769 C   0  0  1  0  0  0  0  0  0  0  0  0
   -1.6996   -2.0753    0.5383 O   0  0  0  0  0  0  0  0  0  0  0  0
   -2.6560   -0.3896    1.5348 H   0  0  0  0  0  0  0  0  0  0  0  0
   -3.0516   -0.0592   -0.9857 H   0  0  0  0  0  0  0  0  0  0  0  0
   -1.4051    2.1553   -0.2320 H   0  0  0  0  0  0  0  0  0  0  0  0
   -1.6136    1.4550   -1.8636 H   0  0  0  0  0  0  0  0  0  0  0  0
    0.4836    2.3540    0.4612 H   0  0  0  0  0  0  0  0  0  0  0  0
    1.3752    2.3078   -1.0946 H   0  0  0  0  0  0  0  0  0  0  0  0
    3.0200    1.6861    0.6550 H   0  0  0  0  0  0  0  0  0  0  0  0
    3.2452   -0.6742    1.0184 H   0  0  0  0  0  0  0  0  0  0  0  0
    1.1350   -2.0106    0.9037 H   0  0  0  0  0  0  0  0  0  0  0  0
    2.5173   -1.9898   -1.0027 H   0  0  0  0  0  0  0  0  0  0  0  0
   -0.1751    0.0375    1.1845 H   0  0  0  0  0  0  0  0  0  0  0  0
   -1.1179   -1.3892   -1.3406 H   0  0  0  0  0  0  0  0  0  0  0  0
   -1.1901   -2.0302    1.4009 H   0  0  0  0  0  0  0  0  0  0  0  0
  1  2  1  0
  2  3  1  0
  3  4  1  0
  4  5  1  0
  5  6  1  0
  6  7  2  0
  7  8  1  0
  8  9  1  0
  8 10  1  0
 10 11  1  0
 11 12  1  0
 11  2  1  0
 10  4  1  0
  1 13  1  0
  2 14  1  6
  3 15  1  0
  3 16  1  0
  5 17  1  0
  5 18  1  0
  6 19  1  0
  7 20  1  0
  8 21  1  1
  9 22  1  0
 10 23  1  1
 11 24  1  6
 12 25  1  0
M  END
$$$$

     RDKit          3D

 25 26  0  0  0  0  0  0  0  0999 V2000
    3.2507    0.1145    0.5153 O   0  0  0  0  0  0  0  0  0  0  0  0
    1.8901    0.0711    0.7960 C   0  0  1  0  0  0  0  0  0  0  0  0
    1.1805    1.3248    0.3118 C   0  0  0  0  0  0  0  0  0  0  0  0
   -0.0935    0.8348    0.0495 N   0  0  0  0  0  0  0  0  0  0  0  0
   -1.2528    1.3679    0.5006 C   0  0  0  0  0  0  0  0  0  0  0  0
   -2.3907    1.0056   -0.3966 C   0  0  0  0  0  0  0  0  0  0  0  0
   -2.3908   -0.2326   -0.8804 C   0  0  0  0  0  0  0  0  0  0  0  0
   -1.2658   -1.1635   -0.4970 C   0  0  2  0  0  0  0  0  0  0  0  0
   -1.4298   -1.4404    0.8470 O   0  0  0  0  0  0  0  0  0  0  0  0
    0.0016   -0.3600   -0.6504 C   0  0  2  0  0  0  0  0  0  0  0  0
    1.1961   -1.0365   -0.0069 C   0  0  1  0  0  0  0  0  0  0  0  0
    2.0988   -1.3819   -1.0375 O   0  0  0  0  0  0  0  0  0  0  0  0
    3.5248    1.0766    0.6223 H   0  0  0  0  0  0  0  0  0  0  0  0
    1.6896   -0.1265    1.8706 H   0  0  0  0  0  0  0  0  0  0  0  0
    1.6826    1.5858   -0.6627 H   0  0  0  0  0  0  0  0  0  0  0  0
    1.2730    2.1571    1.0200 H   0  0  0  0  0  0  0  0  0  0  0  0
   -1.2113    2.4685    0.6361 H   0  0  0  0  0  0  0  0  0  0  0  0
   -1.5377    0.9588    1.5150 H   0  0  0  0  0  0  0  0  0  0  0  0
   -3.1609    1.7314   -0.6245 H   0  0  0  0  0  0  0  0  0  0  0  0
   -3.1934   -0.5496   -1.5372 H   0  0  0  0  0  0  0  0  0  0  0  0
   -1.2783   -2.0484   -1.1320 H   0  0  0  0  0  0  0  0  0  0  0  0
   -2.1797   -2.0355    1.0246 H   0  0  0  0  0  0  0  0  0  0  0  0
    0.2054   -0.1406   -1.7404 H   0  0  0  0  0  0  0  0  0  0  0  0
    0.9256   -1.8914    0.6128 H   0  0  0  0  0  0  0  0  0  0  0  0
    2.4658   -2.2900   -0.8945 H   0  0  0  0  0  0  0  0  0  0  0  0
  1  2  1  0
  2  3  1  0
  3  4  1  0
  4  5  1  0
  5  6  1  0
  6  7  2  0
  7  8  1  0
  8  9  1  0
  8 10  1  0
 10 11  1  0
 11 12  1  0
 11  2  1  0
 10  4  1  0
  1 13  1  0
  2 14  1  1
  3 15  1  0
  3 16  1  0
  5 17  1  0
  5 18  1  0
  6 19  1  0
  7 20  1  0
  8 21  1  6
  9 22  1  0
 10 23  1  6
 11 24  1  1
 12 25  1  0
M  END
$$$$

     RDKit          3D

 25 26  0  0  0  0  0  0  0  0999 V2000
   -2.8855   -1.4419    0.2517 O   0  0  0  0  0  0  0  0  0  0  0  0
   -1.6642   -0.8862    0.5929 C   0  0  1  0  0  0  0  0  0  0  0  0
   -0.5277   -1.7112   -0.0017 C   0  0  0  0  0  0  0  0  0  0  0  0
    0.3294   -0.8030   -0.5822 N   0  0  0  0  0  0  0  0  0  0  0  0
    1.6746   -1.0871   -0.7960 C   0  0  0  0  0  0  0  0  0  0  0  0
    2.5065   -0.2889    0.1601 C   0  0  0  0  0  0  0  0  0  0  0  0
    2.0622    0.9046    0.4947 C   0  0  0  0  0  0  0  0  0  0  0  0
    0.8113    1.5100   -0.0009 C   0  0  2  0  0  0  0  0  0  0  0  0
    0.1626    2.0982    1.0995 O   0  0  0  0  0  0  0  0  0  0  0  0
   -0.1306    0.5069   -0.6188 C   0  0  2  0  0  0  0  0  0  0  0  0
   -1.4863    0.5048    0.0432 C   0  0  1  0  0  0  0  0  0  0  0  0
   -2.4809    0.8204   -0.8731 O   0  0  0  0  0  0  0  0  0  0  0  0
   -3.5826   -0.9150    0.7268 H   0  0  0  0  0  0  0  0  0  0  0  0
   -1.5936   -0.8736    1.6888 H   0  0  0  0  0  0  0  0  0  0  0  0
   -0.1073   -2.3494    0.8041 H   0  0  0  0  0  0  0  0  0  0  0  0
   -0.9665   -2.3888   -0.7920 H   0  0  0  0  0  0  0  0  0  0  0  0
    1.8682   -2.1651   -0.7209 H   0  0  0  0  0  0  0  0  0  0  0  0
    1.9694   -0.7177   -1.8172 H   0  0  0  0  0  0  0  0  0  0  0  0
    3.4264   -0.6973    0.5438 H   0  0  0  0  0  0  0  0  0  0  0  0
    2.6631    1.4853    1.1874 H   0  0  0  0  0  0  0  0  0  0  0  0
    1.0823    2.3117   -0.7060 H   0  0  0  0  0  0  0  0  0  0  0  0
    0.8397    2.6033    1.6161 H   0  0  0  0  0  0  0  0  0  0  0  0
   -0.2657    0.8037   -1.7016 H   0  0  0  0  0  0  0  0  0  0  0  0
   -1.5415    1.2309    0.8783 H   0  0  0  0  0  0  0  0  0  0  0  0
   -2.1633    1.5456   -1.4769 H   0  0  0  0  0  0  0  0  0  0  0  0
  1  2  1  0
  2  3  1  0
  3  4  1  0
  4  5  1  0
  5  6  1  0
  6  7  2  0
  7  8  1  0
  8  9  1  0
  8 10  1  0
 10 11  1  0
 11 12  1  0
 11  2  1  0
 10  4  1  0
  1 13  1  0
  2 14  1  1
  3 15  1  0
  3 16  1  0
  5 17  1  0
  5 18  1  0
  6 19  1  0
  7 20  1  0
  8 21  1  6
  9 22  1  0
 10 23  1  6
 11 24  1  1
 12 25  1  0
M  END
$$$$

     RDKit          3D

 25 26  0  0  0  0  0  0  0  0999 V2000
   -2.8127   -0.1383   -0.7427 O   0  0  0  0  0  0  0  0  0  0  0  0
   -1.9315   -0.6368    0.2282 C   0  0  1  0  0  0  0  0  0  0  0  0
   -0.9755   -1.6348   -0.3668 C   0  0  0  0  0  0  0  0  0  0  0  0
    0.2981   -0.9934   -0.5144 N   0  0  0  0  0  0  0  0  0  0  0  0
    1.3137   -1.4513    0.3445 C   0  0  0  0  0  0  0  0  0  0  0  0
    2.3471   -0.4681    0.6935 C   0  0  0  0  0  0  0  0  0  0  0  0
    2.3065    0.7992    0.3733 C   0  0  0  0  0  0  0  0  0  0  0  0
    1.1541    1.3165   -0.3947 C   0  0  2  0  0  0  0  0  0  0  0  0
    0.7790    2.5324    0.2223 O   0  0  0  0  0  0  0  0  0  0  0  0
    0.0160    0.3979   -0.5148 C   0  0  2  0  0  0  0  0  0  0  0  0
   -1.0159    0.5282    0.5960 C   0  0  1  0  0  0  0  0  0  0  0  0
   -1.6760    1.7432    0.5527 O   0  0  0  0  0  0  0  0  0  0  0  0
   -2.4819   -0.4290   -1.6509 H   0  0  0  0  0  0  0  0  0  0  0  0
   -2.4906   -1.0096    1.0890 H   0  0  0  0  0  0  0  0  0  0  0  0
   -1.3393   -1.9045   -1.3865 H   0  0  0  0  0  0  0  0  0  0  0  0
   -0.9410   -2.5513    0.2546 H   0  0  0  0  0  0  0  0  0  0  0  0
    1.8371   -2.3169   -0.1565 H   0  0  0  0  0  0  0  0  0  0  0  0
    0.9365   -1.8857    1.3130 H   0  0  0  0  0  0  0  0  0  0  0  0
    3.2091   -0.8185    1.2594 H   0  0  0  0  0  0  0  0  0  0  0  0
    3.0936    1.4944    0.6518 H   0  0  0  0  0  0  0  0  0  0  0  0
    1.5383    1.6149   -1.4016 H   0  0  0  0  0  0  0  0  0  0  0  0
    0.3869    3.1627   -0.4342 H   0  0  0  0  0  0  0  0  0  0  0  0
   -0.5478    0.6285   -1.4587 H   0  0  0  0  0  0  0  0  0  0  0  0
   -0.5974    0.3218    1.5824 H   0  0  0  0  0  0  0  0  0  0  0  0
   -2.4064    1.6986   -0.1390 H   0  0  0  0  0  0  0  0  0  0  0  0
  1  2  1  0
  2  3  1  0
  3  4  1  0
  4  5  1  0
  5  6  1  0
  6  7  2  0
  7  8  1  0
  8  9  1  0
  8 10  1  0
 10 11  1  0
 11 12  1  0
 11  2  1  0
 10  4  1  0
  1 13  1  0
  2 14  1  1
  3 15  1  0
  3 16  1  0
  5 17  1  0
  5 18  1  0
  6 19  1  0
  7 20  1  0
  8 21  1  6
  9 22  1  0
 10 23  1  6
 11 24  1  1
 12 25  1  0
M  END
$$$$

     RDKit          3D

 25 26  0  0  0  0  0  0  0  0999 V2000
    3.1887    0.3142   -0.3549 O   0  0  0  0  0  0  0  0  0  0  0  0
    2.0514    0.1595    0.4076 C   0  0  1  0  0  0  0  0  0  0  0  0
    1.1671    1.3549    0.4174 C   0  0  0  0  0  0  0  0  0  0  0  0
   -0.0582    1.0379   -0.2467 N   0  0  0  0  0  0  0  0  0  0  0  0
   -1.2303    1.3744    0.4975 C   0  0  0  0  0  0  0  0  0  0  0  0
   -2.4207    1.0179   -0.3564 C   0  0  0  0  0  0  0  0  0  0  0  0
   -2.4166   -0.2050   -0.8663 C   0  0  0  0  0  0  0  0  0  0  0  0
   -1.2620   -1.0893   -0.5536 C   0  0  2  0  0  0  0  0  0  0  0  0
   -1.3472   -1.6055    0.7371 O   0  0  0  0  0  0  0  0  0  0  0  0
   -0.0005   -0.2948   -0.7333 C   0  0  2  0  0  0  0  0  0  0  0  0
    1.1750   -0.9753   -0.0684 C   0  0  1  0  0  0  0  0  0  0  0  0
    1.8119   -1.7654   -1.0206 O   0  0  0  0  0  0  0  0  0  0  0  0
    3.1078    0.0242   -1.2798 H   0  0  0  0  0  0  0  0  0  0  0  0
    2.3803   -0.0535    1.4517 H   0  0  0  0  0  0  0  0  0  0  0  0
    1.6525    2.1960   -0.1510 H   0  0  0  0  0  0  0  0  0  0  0  0
    0.9560    1.7465    1.4365 H   0  0  0  0  0  0  0  0  0  0  0  0
   -1.2055    2.4593    0.7091 H   0  0  0  0  0  0  0  0  0  0  0  0
   -1.3251    0.8364    1.4649 H   0  0  0  0  0  0  0  0  0  0  0  0
   -3.2024    1.7483   -0.5129 H   0  0  0  0  0  0  0  0  0  0  0  0
   -3.2379   -0.5189   -1.4838 H   0  0  0  0  0  0  0  0  0  0  0  0
   -1.1982   -1.9637   -1.2429 H   0  0  0  0  0  0  0  0  0  0  0  0
   -2.2915   -1.8755    0.9061 H   0  0  0  0  0  0  0  0  0  0  0  0
    0.1849   -0.2477   -1.8464 H   0  0  0  0  0  0  0  0  0  0  0  0
    0.8129   -1.5891    0.7735 H   0  0  0  0  0  0  0  0  0  0  0  0
    2.7075   -2.0856   -0.7071 H   0  0  0  0  0  0  0  0  0  0  0  0
  1  2  1  0
  2  3  1  0
  3  4  1  0
  4  5  1  0
  5  6  1  0
  6  7  2  0
  7  8  1  0
  8  9  1  0
  8 10  1  0
 10 11  1  0
 11 12  1  0
 11  2  1  0
 10  4  1  0
  1 13  1  0
  2 14  1  1
  3 15  1  0
  3 16  1  0
  5 17  1  0
  5 18  1  0
  6 19  1  0
  7 20  1  0
  8 21  1  6
  9 22  1  0
 10 23  1  6
 11 24  1  1
 12 25  1  0
M  END
$$$$
