
     RDKit          3D

 27 27  0  0  0  0  0  0  0  0999 V2000
   -3.1930    0.9604    0.7612 C   0  0  0  0  0  0  0  0  0  0  0  0
   -1.8050    0.8361    0.2281 C   0  0  0  0  0  0  0  0  0  0  0  0
   -1.5224   -0.4401   -0.5386 C   0  0  1  0  0  0  0  0  0  0  0  0
   -1.6887   -1.6888    0.2533 C   0  0  0  0  0  0  0  0  0  0  0  0
   -2.3251   -0.5104   -1.6894 O   0  0  0  0  0  0  0  0  0  0  0  0
   -0.0785   -0.2445   -1.0494 C   0  0  0  0  0  0  0  0  0  0  0  0
    0.8370   -0.1822    0.0530 N   0  0  0  0  0  0  0  0  0  0  0  0
    2.2170    0.1983   -0.1055 C   0  0  0  0  0  0  0  0  0  0  0  0
    2.5430    1.2538   -0.7739 N   0  0  0  0  0  0  0  0  0  0  0  0
    3.9492    1.4326   -0.7989 C   0  0  0  0  0  0  0  0  0  0  0  0
    4.6293    2.3509   -1.3546 O   0  0  0  0  0  0  0  0  0  0  0  0
    4.5065    0.3063   -0.0254 C   0  0  0  0  0  0  0  0  0  0  0  0
    5.6827    0.0421    0.2239 O   0  0  0  0  0  0  0  0  0  0  0  0
    3.3730   -0.4539    0.3977 N   0  0  0  0  0  0  0  0  0  0  0  0
   -3.9806    1.0351   -0.0284 H   0  0  0  0  0  0  0  0  0  0  0  0
   -3.4639    0.2485    1.5545 H   0  0  0  0  0  0  0  0  0  0  0  0
   -3.2374    1.9941    1.2501 H   0  0  0  0  0  0  0  0  0  0  0  0
   -1.0987    0.8534    1.0681 H   0  0  0  0  0  0  0  0  0  0  0  0
   -1.6136    1.6653   -0.4934 H   0  0  0  0  0  0  0  0  0  0  0  0
   -2.6539   -2.2026    0.0600 H   0  0  0  0  0  0  0  0  0  0  0  0
   -1.6025   -1.4730    1.3552 H   0  0  0  0  0  0  0  0  0  0  0  0
   -0.9004   -2.4587    0.0149 H   0  0  0  0  0  0  0  0  0  0  0  0
   -2.6303   -1.4537   -1.7662 H   0  0  0  0  0  0  0  0  0  0  0  0
    0.1673   -1.0496   -1.7806 H   0  0  0  0  0  0  0  0  0  0  0  0
   -0.0791    0.7157   -1.6199 H   0  0  0  0  0  0  0  0  0  0  0  0
    0.5741   -0.4121    1.0224 H   0  0  0  0  0  0  0  0  0  0  0  0
    3.3940   -1.3233    0.9765 H   0  0  0  0  0  0  0  0  0  0  0  0
  1  2  1  0
  2  3  1  0
  3  4  1  0
  3  5  1  6
  3  6  1  0
  6  7  1  0
  7  8  1  0
  8  9  2  0
  9 10  1  0
 10 11  2  0
 10 12  1  0
 12 13  2  0
 12 14  1  0
 14  8  1  0
  1 15  1  0
  1 16  1  0
  1 17  1  0
  2 18  1  0
  2 19  1  0
  4 20  1  0
  4 21  1  0
  4 22  1  0
  5 23  1  0
  6 24  1  0
  6 25  1  0
  7 26  1  0
 14 27  1  0
M  END
$$$$

     RDKit          3D

 27 27  0  0  0  0  0  0  0  0999 V2000
   -3.2813   -0.8793   -0.9105 C   0  0  0  0  0  0  0  0  0  0  0  0
   -1.9155   -0.2038   -1.0861 C   0  0  0  0  0  0  0  0  0  0  0  0
   -1.3828    0.1010    0.2778 C   0  0  1  0  0  0  0  0  0  0  0  0
   -2.3607    1.0432    0.9586 C   0  0  0  0  0  0  0  0  0  0  0  0
   -1.3508   -1.0810    1.0625 O   0  0  0  0  0  0  0  0  0  0  0  0
   -0.0219    0.6769    0.3280 C   0  0  0  0  0  0  0  0  0  0  0  0
    0.9391   -0.2645   -0.2017 N   0  0  0  0  0  0  0  0  0  0  0  0
    2.3143   -0.0805    0.0408 C   0  0  0  0  0  0  0  0  0  0  0  0
    2.7524    0.6274    1.0356 N   0  0  0  0  0  0  0  0  0  0  0  0
    4.1679    0.6450    1.0533 C   0  0  0  0  0  0  0  0  0  0  0  0
    4.8964    1.2416    1.8843 O   0  0  0  0  0  0  0  0  0  0  0  0
    4.5848   -0.1567   -0.0737 C   0  0  0  0  0  0  0  0  0  0  0  0
    5.7669   -0.3973   -0.4151 O   0  0  0  0  0  0  0  0  0  0  0  0
    3.3846   -0.6108   -0.7095 N   0  0  0  0  0  0  0  0  0  0  0  0
   -3.4571   -1.1037    0.1731 H   0  0  0  0  0  0  0  0  0  0  0  0
   -4.1178   -0.2409   -1.2412 H   0  0  0  0  0  0  0  0  0  0  0  0
   -3.2989   -1.8208   -1.4893 H   0  0  0  0  0  0  0  0  0  0  0  0
   -2.0872    0.7848   -1.6072 H   0  0  0  0  0  0  0  0  0  0  0  0
   -1.2858   -0.8393   -1.7075 H   0  0  0  0  0  0  0  0  0  0  0  0
   -3.1189    0.4393    1.4657 H   0  0  0  0  0  0  0  0  0  0  0  0
   -2.7608    1.7328    0.1883 H   0  0  0  0  0  0  0  0  0  0  0  0
   -1.7768    1.6745    1.6663 H   0  0  0  0  0  0  0  0  0  0  0  0
   -0.7800   -1.7491    0.5976 H   0  0  0  0  0  0  0  0  0  0  0  0
    0.0340    1.5933   -0.3235 H   0  0  0  0  0  0  0  0  0  0  0  0
    0.2008    0.9774    1.3643 H   0  0  0  0  0  0  0  0  0  0  0  0
    0.5955   -1.0598   -0.7719 H   0  0  0  0  0  0  0  0  0  0  0  0
    3.3595   -1.2191   -1.5589 H   0  0  0  0  0  0  0  0  0  0  0  0
  1  2  1  0
  2  3  1  0
  3  4  1  0
  3  5  1  1
  3  6  1  0
  6  7  1  0
  7  8  1  0
  8  9  2  0
  9 10  1  0
 10 11  2  0
 10 12  1  0
 12 13  2  0
 12 14  1  0
 14  8  1  0
  1 15  1  0
  1 16  1  0
  1 17  1  0
  2 18  1  0
  2 19  1  0
  4 20  1  0
  4 21  1  0
  4 22  1  0
  5 23  1  0
  6 24  1  0
  6 25  1  0
  7 26  1  0
 14 27  1  0
M  END
$$$$

     RDKit          3D

 27 27  0  0  0  0  0  0  0  0999 V2000
   -2.7568    1.6235    0.1578 C   0  0  0  0  0  0  0  0  0  0  0  0
   -2.4975    0.6499   -0.9537 C   0  0  0  0  0  0  0  0  0  0  0  0
   -1.4615   -0.4040   -0.5674 C   0  0  1  0  0  0  0  0  0  0  0  0
   -1.9913   -1.1467    0.6202 C   0  0  0  0  0  0  0  0  0  0  0  0
   -1.3080   -1.2469   -1.6581 O   0  0  0  0  0  0  0  0  0  0  0  0
   -0.1535    0.2885   -0.2965 C   0  0  0  0  0  0  0  0  0  0  0  0
    0.8800   -0.6649   -0.0090 N   0  0  0  0  0  0  0  0  0  0  0  0
    2.2039   -0.2214    0.2779 C   0  0  0  0  0  0  0  0  0  0  0  0
    2.5358    0.9156    0.8068 N   0  0  0  0  0  0  0  0  0  0  0  0
    3.9354    1.0247    0.9497 C   0  0  0  0  0  0  0  0  0  0  0  0
    4.5762    1.9938    1.4247 O   0  0  0  0  0  0  0  0  0  0  0  0
    4.5094   -0.2290    0.4299 C   0  0  0  0  0  0  0  0  0  0  0  0
    5.7366   -0.5308    0.3782 O   0  0  0  0  0  0  0  0  0  0  0  0
    3.3819   -0.9908    0.0145 N   0  0  0  0  0  0  0  0  0  0  0  0
   -2.4500    2.6613   -0.0941 H   0  0  0  0  0  0  0  0  0  0  0  0
   -3.8592    1.6538    0.3336 H   0  0  0  0  0  0  0  0  0  0  0  0
   -2.2615    1.3604    1.1077 H   0  0  0  0  0  0  0  0  0  0  0  0
   -2.1031    1.1372   -1.8743 H   0  0  0  0  0  0  0  0  0  0  0  0
   -3.4040    0.0925   -1.2737 H   0  0  0  0  0  0  0  0  0  0  0  0
   -2.8087   -0.6043    1.1522 H   0  0  0  0  0  0  0  0  0  0  0  0
   -2.4583   -2.1030    0.2554 H   0  0  0  0  0  0  0  0  0  0  0  0
   -1.2036   -1.3408    1.3737 H   0  0  0  0  0  0  0  0  0  0  0  0
   -1.0537   -2.1776   -1.3711 H   0  0  0  0  0  0  0  0  0  0  0  0
    0.1366    0.8005   -1.2518 H   0  0  0  0  0  0  0  0  0  0  0  0
   -0.2435    1.0719    0.4817 H   0  0  0  0  0  0  0  0  0  0  0  0
    0.6740   -1.6687   -0.0079 H   0  0  0  0  0  0  0  0  0  0  0  0
    3.4443   -1.9448   -0.4063 H   0  0  0  0  0  0  0  0  0  0  0  0
  1  2  1  0
  2  3  1  0
  3  4  1  0
  3  5  1  6
  3  6  1  0
  6  7  1  0
  7  8  1  0
  8  9  2  0
  9 10  1  0
 10 11  2  0
 10 12  1  0
 12 13  2  0
 12 14  1  0
 14  8  1  0
  1 15  1  0
  1 16  1  0
  1 17  1  0
  2 18  1  0
  2 19  1  0
  4 20  1  0
  4 21  1  0
  4 22  1  0
  5 23  1  0
  6 24  1  0
  6 25  1  0
  7 26  1  0
 14 27  1  0
M  END
$$$$

     RDKit          3D

 27 27  0  0  0  0  0  0  0  0999 V2000
   -1.8323   -1.4686   -0.3196 C   0  0  0  0  0  0  0  0  0  0  0  0
   -2.3171   -0.2309    0.3606 C   0  0  0  0  0  0  0  0  0  0  0  0
   -1.3080    0.9051    0.3819 C   0  0  1  0  0  0  0  0  0  0  0  0
   -0.9428    1.2938   -0.9944 C   0  0  0  0  0  0  0  0  0  0  0  0
   -2.0800    2.0151    0.8915 O   0  0  0  0  0  0  0  0  0  0  0  0
   -0.2432    0.6982    1.3804 C   0  0  0  0  0  0  0  0  0  0  0  0
    0.7152   -0.3335    1.1888 N   0  0  0  0  0  0  0  0  0  0  0  0
    1.7672   -0.3518    0.2202 C   0  0  0  0  0  0  0  0  0  0  0  0
    1.9129    0.5218   -0.7050 N   0  0  0  0  0  0  0  0  0  0  0  0
    3.0337    0.2648   -1.5194 C   0  0  0  0  0  0  0  0  0  0  0  0
    3.4691    0.9188   -2.5157 O   0  0  0  0  0  0  0  0  0  0  0  0
    3.6409   -0.9578   -0.9809 C   0  0  0  0  0  0  0  0  0  0  0  0
    4.6751   -1.5360   -1.4214 O   0  0  0  0  0  0  0  0  0  0  0  0
    2.8223   -1.3349    0.1245 N   0  0  0  0  0  0  0  0  0  0  0  0
   -2.1852   -2.3428    0.3037 H   0  0  0  0  0  0  0  0  0  0  0  0
   -2.3046   -1.6257   -1.3199 H   0  0  0  0  0  0  0  0  0  0  0  0
   -0.7257   -1.5590   -0.3889 H   0  0  0  0  0  0  0  0  0  0  0  0
   -2.5414   -0.4432    1.4357 H   0  0  0  0  0  0  0  0  0  0  0  0
   -3.2596    0.0892   -0.1239 H   0  0  0  0  0  0  0  0  0  0  0  0
   -0.2371    2.1739   -0.9863 H   0  0  0  0  0  0  0  0  0  0  0  0
   -0.6391    0.4861   -1.6745 H   0  0  0  0  0  0  0  0  0  0  0  0
   -1.8638    1.7544   -1.4917 H   0  0  0  0  0  0  0  0  0  0  0  0
   -2.7660    2.2559    0.1910 H   0  0  0  0  0  0  0  0  0  0  0  0
   -0.7503    0.5012    2.3846 H   0  0  0  0  0  0  0  0  0  0  0  0
    0.3139    1.6673    1.6092 H   0  0  0  0  0  0  0  0  0  0  0  0
    0.6970   -1.2143    1.7970 H   0  0  0  0  0  0  0  0  0  0  0  0
    2.9489   -2.1472    0.7435 H   0  0  0  0  0  0  0  0  0  0  0  0
  1  2  1  0
  2  3  1  0
  3  4  1  0
  3  5  1  1
  3  6  1  0
  6  7  1  0
  7  8  1  0
  8  9  2  0
  9 10  1  0
 10 11  2  0
 10 12  1  0
 12 13  2  0
 12 14  1  0
 14  8  1  0
  1 15  1  0
  1 16  1  0
  1 17  1  0
  2 18  1  0
  2 19  1  0
  4 20  1  0
  4 21  1  0
  4 22  1  0
  5 23  1  0
  6 24  1  0
  6 25  1  0
  7 26  1  0
 14 27  1  0
M  END
$$$$

     RDKit          3D

 27 27  0  0  0  0  0  0  0  0999 V2000
   -3.1500    1.3841    0.0359 C   0  0  0  0  0  0  0  0  0  0  0  0
   -1.8123    0.8936    0.4788 C   0  0  0  0  0  0  0  0  0  0  0  0
   -1.3922   -0.3719   -0.2755 C   0  0  1  0  0  0  0  0  0  0  0  0
   -2.4592   -1.4093    0.0298 C   0  0  0  0  0  0  0  0  0  0  0  0
   -1.3884   -0.1622   -1.6310 O   0  0  0  0  0  0  0  0  0  0  0  0
   -0.0454   -0.8422    0.2414 C   0  0  0  0  0  0  0  0  0  0  0  0
    0.9417    0.1701   -0.0642 N   0  0  0  0  0  0  0  0  0  0  0  0
    2.3138   -0.0096    0.3123 C   0  0  0  0  0  0  0  0  0  0  0  0
    2.6795   -0.7117    1.3346 N   0  0  0  0  0  0  0  0  0  0  0  0
    4.0971   -0.7059    1.4539 C   0  0  0  0  0  0  0  0  0  0  0  0
    4.8161   -1.2700    2.3135 O   0  0  0  0  0  0  0  0  0  0  0  0
    4.6127    0.1089    0.3519 C   0  0  0  0  0  0  0  0  0  0  0  0
    5.7722    0.4073    0.0356 O   0  0  0  0  0  0  0  0  0  0  0  0
    3.4473    0.5366   -0.3556 N   0  0  0  0  0  0  0  0  0  0  0  0
   -3.3634    1.1859   -1.0339 H   0  0  0  0  0  0  0  0  0  0  0  0
   -3.2661    2.4758    0.1836 H   0  0  0  0  0  0  0  0  0  0  0  0
   -3.9875    0.9110    0.6015 H   0  0  0  0  0  0  0  0  0  0  0  0
   -1.0304    1.6635    0.3191 H   0  0  0  0  0  0  0  0  0  0  0  0
   -1.8339    0.7006    1.5702 H   0  0  0  0  0  0  0  0  0  0  0  0
   -2.0785   -2.4287   -0.1677 H   0  0  0  0  0  0  0  0  0  0  0  0
   -3.3136   -1.2224   -0.6672 H   0  0  0  0  0  0  0  0  0  0  0  0
   -2.8202   -1.3300    1.0774 H   0  0  0  0  0  0  0  0  0  0  0  0
   -0.9664    0.6800   -1.9171 H   0  0  0  0  0  0  0  0  0  0  0  0
   -0.0852   -1.1053    1.3142 H   0  0  0  0  0  0  0  0  0  0  0  0
    0.2046   -1.7636   -0.3213 H   0  0  0  0  0  0  0  0  0  0  0  0
    0.7068    1.0714   -0.5686 H   0  0  0  0  0  0  0  0  0  0  0  0
    3.4009    1.1439   -1.2157 H   0  0  0  0  0  0  0  0  0  0  0  0
  1  2  1  0
  2  3  1  0
  3  4  1  0
  3  5  1  6
  3  6  1  0
  6  7  1  0
  7  8  1  0
  8  9  2  0
  9 10  1  0
 10 11  2  0
 10 12  1  0
 12 13  2  0
 12 14  1  0
 14  8  1  0
  1 15  1  0
  1 16  1  0
  1 17  1  0
  2 18  1  0
  2 19  1  0
  4 20  1  0
  4 21  1  0
  4 22  1  0
  5 23  1  0
  6 24  1  0
  6 25  1  0
  7 26  1  0
 14 27  1  0
M  END
$$$$

     RDKit          3D

 27 27  0  0  0  0  0  0  0  0999 V2000
   -2.1593    1.7508    0.1739 C   0  0  0  0  0  0  0  0  0  0  0  0
   -2.2224    0.2678    0.4596 C   0  0  0  0  0  0  0  0  0  0  0  0
   -1.6681   -0.4917   -0.7046 C   0  0  1  0  0  0  0  0  0  0  0  0
   -1.7178   -1.9804   -0.4519 C   0  0  0  0  0  0  0  0  0  0  0  0
   -2.4351   -0.2115   -1.8128 O   0  0  0  0  0  0  0  0  0  0  0  0
   -0.2586   -0.0136   -0.9619 C   0  0  0  0  0  0  0  0  0  0  0  0
    0.6182   -0.2708    0.1591 N   0  0  0  0  0  0  0  0  0  0  0  0
    1.9851    0.1252    0.0088 C   0  0  0  0  0  0  0  0  0  0  0  0
    2.4706    1.0386   -0.7653 N   0  0  0  0  0  0  0  0  0  0  0  0
    3.8667    1.1594   -0.6548 C   0  0  0  0  0  0  0  0  0  0  0  0
    4.6050    1.9599   -1.2832 O   0  0  0  0  0  0  0  0  0  0  0  0
    4.2808    0.1680    0.3355 C   0  0  0  0  0  0  0  0  0  0  0  0
    5.4438   -0.0582    0.7319 O   0  0  0  0  0  0  0  0  0  0  0  0
    3.0815   -0.4675    0.7365 N   0  0  0  0  0  0  0  0  0  0  0  0
   -2.0829    1.9529   -0.9276 H   0  0  0  0  0  0  0  0  0  0  0  0
   -1.2991    2.2419    0.6689 H   0  0  0  0  0  0  0  0  0  0  0  0
   -3.1244    2.2284    0.5116 H   0  0  0  0  0  0  0  0  0  0  0  0
   -3.2306   -0.0747    0.7669 H   0  0  0  0  0  0  0  0  0  0  0  0
   -1.5603    0.0668    1.3399 H   0  0  0  0  0  0  0  0  0  0  0  0
   -0.9134   -2.5168   -0.9865 H   0  0  0  0  0  0  0  0  0  0  0  0
   -2.6803   -2.3696   -0.8468 H   0  0  0  0  0  0  0  0  0  0  0  0
   -1.7202   -2.1844    0.6426 H   0  0  0  0  0  0  0  0  0  0  0  0
   -2.5042   -0.9513   -2.4672 H   0  0  0  0  0  0  0  0  0  0  0  0
   -0.2411    1.0792   -1.1449 H   0  0  0  0  0  0  0  0  0  0  0  0
    0.1629   -0.4917   -1.8721 H   0  0  0  0  0  0  0  0  0  0  0  0
    0.3006   -0.7233    1.0541 H   0  0  0  0  0  0  0  0  0  0  0  0
    3.0021   -1.2334    1.4381 H   0  0  0  0  0  0  0  0  0  0  0  0
  1  2  1  0
  2  3  1  0
  3  4  1  0
  3  5  1  6
  3  6  1  0
  6  7  1  0
  7  8  1  0
  8  9  2  0
  9 10  1  0
 10 11  2  0
 10 12  1  0
 12 13  2  0
 12 14  1  0
 14  8  1  0
  1 15  1  0
  1 16  1  0
  1 17  1  0
  2 18  1  0
  2 19  1  0
  4 20  1  0
  4 21  1  0
  4 22  1  0
  5 23  1  0
  6 24  1  0
  6 25  1  0
  7 26  1  0
 14 27  1  0
M  END
$$$$

     RDKit          3D

 27 27  0  0  0  0  0  0  0  0999 V2000
   -3.7510    0.4029    0.6059 C   0  0  0  0  0  0  0  0  0  0  0  0
   -2.3357    0.4369    1.1242 C   0  0  0  0  0  0  0  0  0  0  0  0
   -1.3411    0.0690    0.0255 C   0  0  1  0  0  0  0  0  0  0  0  0
   -1.6769   -1.3333   -0.4123 C   0  0  0  0  0  0  0  0  0  0  0  0
   -1.5497    0.9085   -1.0934 O   0  0  0  0  0  0  0  0  0  0  0  0
    0.0586    0.2117    0.4975 C   0  0  0  0  0  0  0  0  0  0  0  0
    0.9966   -0.1524   -0.5460 N   0  0  0  0  0  0  0  0  0  0  0  0
    2.3831    0.1012   -0.3064 C   0  0  0  0  0  0  0  0  0  0  0  0
    2.8571    0.6789    0.7367 N   0  0  0  0  0  0  0  0  0  0  0  0
    4.2739    0.7764    0.6651 C   0  0  0  0  0  0  0  0  0  0  0  0
    5.0508    1.2818    1.5126 O   0  0  0  0  0  0  0  0  0  0  0  0
    4.6667    0.1561   -0.6196 C   0  0  0  0  0  0  0  0  0  0  0  0
    5.7998    0.0157   -1.1000 O   0  0  0  0  0  0  0  0  0  0  0  0
    3.4336   -0.2581   -1.2032 N   0  0  0  0  0  0  0  0  0  0  0  0
   -3.7292    0.4039   -0.5075 H   0  0  0  0  0  0  0  0  0  0  0  0
   -4.3136   -0.4725    0.9394 H   0  0  0  0  0  0  0  0  0  0  0  0
   -4.2537    1.3707    0.9031 H   0  0  0  0  0  0  0  0  0  0  0  0
   -2.1053    1.3633    1.6381 H   0  0  0  0  0  0  0  0  0  0  0  0
   -2.2267   -0.3955    1.8853 H   0  0  0  0  0  0  0  0  0  0  0  0
   -2.7476   -1.3607   -0.7540 H   0  0  0  0  0  0  0  0  0  0  0  0
   -0.9844   -1.7192   -1.1901 H   0  0  0  0  0  0  0  0  0  0  0  0
   -1.6265   -1.9762    0.5013 H   0  0  0  0  0  0  0  0  0  0  0  0
   -1.4103    0.3962   -1.9178 H   0  0  0  0  0  0  0  0  0  0  0  0
    0.2577    1.2323    0.8305 H   0  0  0  0  0  0  0  0  0  0  0  0
    0.2614   -0.4705    1.3464 H   0  0  0  0  0  0  0  0  0  0  0  0
    0.7124   -0.5827   -1.4453 H   0  0  0  0  0  0  0  0  0  0  0  0
    3.2999   -0.7378   -2.1163 H   0  0  0  0  0  0  0  0  0  0  0  0
  1  2  1  0
  2  3  1  0
  3  4  1  0
  3  5  1  6
  3  6  1  0
  6  7  1  0
  7  8  1  0
  8  9  2  0
  9 10  1  0
 10 11  2  0
 10 12  1  0
 12 13  2  0
 12 14  1  0
 14  8  1  0
  1 15  1  0
  1 16  1  0
  1 17  1  0
  2 18  1  0
  2 19  1  0
  4 20  1  0
  4 21  1  0
  4 22  1  0
  5 23  1  0
  6 24  1  0
  6 25  1  0
  7 26  1  0
 14 27  1  0
M  END
$$$$

     RDKit          3D

 27 27  0  0  0  0  0  0  0  0999 V2000
   -3.2384    0.7584    0.4851 C   0  0  0  0  0  0  0  0  0  0  0  0
   -2.0759    1.2846   -0.2885 C   0  0  0  0  0  0  0  0  0  0  0  0
   -0.9525    0.2781   -0.4772 C   0  0  1  0  0  0  0  0  0  0  0  0
   -1.4214   -0.9453   -1.2247 C   0  0  0  0  0  0  0  0  0  0  0  0
    0.0058    0.9279   -1.2344 O   0  0  0  0  0  0  0  0  0  0  0  0
   -0.4879   -0.1463    0.8823 C   0  0  0  0  0  0  0  0  0  0  0  0
    0.6323   -1.0285    0.8960 N   0  0  0  0  0  0  0  0  0  0  0  0
    1.9570   -0.5861    0.5131 C   0  0  0  0  0  0  0  0  0  0  0  0
    2.2781    0.5745    0.0776 N   0  0  0  0  0  0  0  0  0  0  0  0
    3.6584    0.6560   -0.1954 C   0  0  0  0  0  0  0  0  0  0  0  0
    4.3316    1.6367   -0.6358 O   0  0  0  0  0  0  0  0  0  0  0  0
    4.2268   -0.6476    0.1284 C   0  0  0  0  0  0  0  0  0  0  0  0
    5.4420   -1.0023    0.0288 O   0  0  0  0  0  0  0  0  0  0  0  0
    3.1118   -1.4082    0.5752 N   0  0  0  0  0  0  0  0  0  0  0  0
   -3.9703    1.6199    0.5551 H   0  0  0  0  0  0  0  0  0  0  0  0
   -3.8077   -0.0503    0.0018 H   0  0  0  0  0  0  0  0  0  0  0  0
   -2.9948    0.5462    1.5558 H   0  0  0  0  0  0  0  0  0  0  0  0
   -2.4245    1.5684   -1.3002 H   0  0  0  0  0  0  0  0  0  0  0  0
   -1.7013    2.1961    0.1845 H   0  0  0  0  0  0  0  0  0  0  0  0
   -2.5174   -1.0454   -1.1967 H   0  0  0  0  0  0  0  0  0  0  0  0
   -1.1500   -0.8189   -2.3107 H   0  0  0  0  0  0  0  0  0  0  0  0
   -0.8743   -1.8480   -0.8881 H   0  0  0  0  0  0  0  0  0  0  0  0
   -0.0454    1.9074   -1.1100 H   0  0  0  0  0  0  0  0  0  0  0  0
   -0.3340    0.7210    1.5615 H   0  0  0  0  0  0  0  0  0  0  0  0
   -1.3600   -0.6968    1.3395 H   0  0  0  0  0  0  0  0  0  0  0  0
    0.5526   -2.0316    1.1802 H   0  0  0  0  0  0  0  0  0  0  0  0
    3.1594   -2.4199    0.8967 H   0  0  0  0  0  0  0  0  0  0  0  0
  1  2  1  0
  2  3  1  0
  3  4  1  0
  3  5  1  6
  3  6  1  0
  6  7  1  0
  7  8  1  0
  8  9  2  0
  9 10  1  0
 10 11  2  0
 10 12  1  0
 12 13  2  0
 12 14  1  0
 14  8  1  0
  1 15  1  0
  1 16  1  0
  1 17  1  0
  2 18  1  0
  2 19  1  0
  4 20  1  0
  4 21  1  0
  4 22  1  0
  5 23  1  0
  6 24  1  0
  6 25  1  0
  7 26  1  0
 14 27  1  0
M  END
$$$$
