
     RDKit          3D

 24 23  0  0  0  0  0  0  0  0999 V2000
    2.6957   -1.3593   -0.7550 C   0  0  0  0  0  0  0  0  0  0  0  0
    2.0440   -0.0608   -0.3145 C   0  0  2  0  0  0  0  0  0  0  0  0
    2.1305    0.1449    1.0490 O   0  0  0  0  0  0  0  0  0  0  0  0
    2.8524    1.2482    1.3342 N   0  0  0  0  0  0  0  0  0  0  0  0
    0.6262   -0.0723   -0.7722 C   0  0  0  0  0  0  0  0  0  0  0  0
    0.3574   -0.2459   -1.9740 O   0  0  0  0  0  0  0  0  0  0  0  0
   -0.4599    0.1124    0.1360 N   0  0  0  0  0  0  0  0  0  0  0  0
   -1.8350    0.0984   -0.3258 C   0  0  2  0  0  0  0  0  0  0  0  0
   -2.4299    1.4611   -0.0759 C   0  0  0  0  0  0  0  0  0  0  0  0
   -2.6083   -0.9666    0.3630 C   0  0  0  0  0  0  0  0  0  0  0  0
   -2.0270   -1.6826    1.2059 O   0  0  0  0  0  0  0  0  0  0  0  0
   -3.9336   -1.1960    0.1117 O   0  0  0  0  0  0  0  0  0  0  0  0
    3.0666   -1.2737   -1.8140 H   0  0  0  0  0  0  0  0  0  0  0  0
    3.5936   -1.5810   -0.1400 H   0  0  0  0  0  0  0  0  0  0  0  0
    1.9686   -2.1826   -0.7280 H   0  0  0  0  0  0  0  0  0  0  0  0
    2.6035    0.7524   -0.8485 H   0  0  0  0  0  0  0  0  0  0  0  0
    2.2727    2.1005    1.2268 H   0  0  0  0  0  0  0  0  0  0  0  0
    3.3012    1.1837    2.2821 H   0  0  0  0  0  0  0  0  0  0  0  0
   -0.2244    0.2561    1.1341 H   0  0  0  0  0  0  0  0  0  0  0  0
   -1.8463   -0.0700   -1.4237 H   0  0  0  0  0  0  0  0  0  0  0  0
   -2.5113    2.0536   -1.0014 H   0  0  0  0  0  0  0  0  0  0  0  0
   -1.8020    2.0436    0.6249 H   0  0  0  0  0  0  0  0  0  0  0  0
   -3.4207    1.3085    0.4207 H   0  0  0  0  0  0  0  0  0  0  0  0
   -4.4141   -2.0724    0.2845 H   0  0  0  0  0  0  0  0  0  0  0  0
  1  2  1  0
  2  3  1  0
  3  4  1  0
  2  5  1  0
  5  6  2  0
  5  7  1  0
  7  8  1  0
  8  9  1  0
  8 10  1  0
 10 11  2  0
 10 12  1  0
  1 13  1  0
  1 14  1  0
  1 15  1  0
  2 16  1  6
  4 17  1  0
  4 18  1  0
  7 19  1  0
  8 20  1  6
  9 21  1  0
  9 22  1  0
  9 23  1  0
 12 24  1  0
M  END
$$$$

     RDKit          3D

 24 23  0  0  0  0  0  0  0  0999 V2000
    2.4029   -1.7161   -0.0604 C   0  0  0  0  0  0  0  0  0  0  0  0
    1.8643   -0.4806   -0.7012 C   0  0  2  0  0  0  0  0  0  0  0  0
    2.3534    0.6525   -0.0543 O   0  0  0  0  0  0  0  0  0  0  0  0
    2.9344    1.5295   -0.8879 N   0  0  0  0  0  0  0  0  0  0  0  0
    0.3576   -0.5092   -0.5533 C   0  0  0  0  0  0  0  0  0  0  0  0
   -0.3129   -1.4388   -1.0528 O   0  0  0  0  0  0  0  0  0  0  0  0
   -0.3075    0.5211    0.1550 N   0  0  0  0  0  0  0  0  0  0  0  0
   -1.7231    0.5981    0.3427 C   0  0  2  0  0  0  0  0  0  0  0  0
   -2.2415   -0.0452    1.5915 C   0  0  0  0  0  0  0  0  0  0  0  0
   -2.5371    0.3009   -0.8667 C   0  0  0  0  0  0  0  0  0  0  0  0
   -2.0563    0.0774   -1.9749 O   0  0  0  0  0  0  0  0  0  0  0  0
   -3.9315    0.2810   -0.7047 O   0  0  0  0  0  0  0  0  0  0  0  0
    1.5933   -2.4579    0.1439 H   0  0  0  0  0  0  0  0  0  0  0  0
    3.1393   -2.2031   -0.7055 H   0  0  0  0  0  0  0  0  0  0  0  0
    2.8286   -1.4643    0.9443 H   0  0  0  0  0  0  0  0  0  0  0  0
    2.0788   -0.3780   -1.7708 H   0  0  0  0  0  0  0  0  0  0  0  0
    2.6664    2.4985   -0.6095 H   0  0  0  0  0  0  0  0  0  0  0  0
    3.9703    1.4658   -0.8642 H   0  0  0  0  0  0  0  0  0  0  0  0
    0.3311    1.2858    0.5711 H   0  0  0  0  0  0  0  0  0  0  0  0
   -1.9296    1.7322    0.4768 H   0  0  0  0  0  0  0  0  0  0  0  0
   -2.3026    0.6643    2.4581 H   0  0  0  0  0  0  0  0  0  0  0  0
   -1.4603   -0.7953    1.9117 H   0  0  0  0  0  0  0  0  0  0  0  0
   -3.1653   -0.6305    1.4528 H   0  0  0  0  0  0  0  0  0  0  0  0
   -4.5527    0.5117   -1.4809 H   0  0  0  0  0  0  0  0  0  0  0  0
  1  2  1  0
  2  3  1  0
  3  4  1  0
  2  5  1  0
  5  6  2  0
  5  7  1  0
  7  8  1  0
  8  9  1  0
  8 10  1  0
 10 11  2  0
 10 12  1  0
  1 13  1  0
  1 14  1  0
  1 15  1  0
  2 16  1  6
  4 17  1  0
  4 18  1  0
  7 19  1  0
  8 20  1  1
  9 21  1  0
  9 22  1  0
  9 23  1  0
 12 24  1  0
M  END
$$$$

     RDKit          3D

 24 23  0  0  0  0  0  0  0  0999 V2000
    2.0914   -1.3724   -0.3664 C   0  0  0  0  0  0  0  0  0  0  0  0
    1.9570    0.0998    0.0138 C   0  0  2  0  0  0  0  0  0  0  0  0
    2.9755    0.5151    0.8329 O   0  0  0  0  0  0  0  0  0  0  0  0
    3.6962    1.4750    0.2163 N   0  0  0  0  0  0  0  0  0  0  0  0
    0.6083    0.3469    0.5913 C   0  0  0  0  0  0  0  0  0  0  0  0
    0.3916    0.8711    1.6945 O   0  0  0  0  0  0  0  0  0  0  0  0
   -0.5053   -0.0559   -0.1971 N   0  0  0  0  0  0  0  0  0  0  0  0
   -1.8660    0.1158    0.2239 C   0  0  2  0  0  0  0  0  0  0  0  0
   -2.5055   -1.2539    0.2846 C   0  0  0  0  0  0  0  0  0  0  0  0
   -2.6658    0.9560   -0.6739 C   0  0  0  0  0  0  0  0  0  0  0  0
   -2.2462    1.4995   -1.7276 O   0  0  0  0  0  0  0  0  0  0  0  0
   -3.9957    1.1721   -0.3374 O   0  0  0  0  0  0  0  0  0  0  0  0
    2.3054   -1.5156   -1.4348 H   0  0  0  0  0  0  0  0  0  0  0  0
    2.9648   -1.7807    0.1943 H   0  0  0  0  0  0  0  0  0  0  0  0
    1.1578   -1.8896   -0.1016 H   0  0  0  0  0  0  0  0  0  0  0  0
    1.9876    0.6595   -0.9437 H   0  0  0  0  0  0  0  0  0  0  0  0
    4.3606    1.9069    0.8829 H   0  0  0  0  0  0  0  0  0  0  0  0
    4.1242    1.1689   -0.6748 H   0  0  0  0  0  0  0  0  0  0  0  0
   -0.3521   -0.5071   -1.1451 H   0  0  0  0  0  0  0  0  0  0  0  0
   -1.8452    0.6012    1.2351 H   0  0  0  0  0  0  0  0  0  0  0  0
   -3.5518   -1.2417   -0.0881 H   0  0  0  0  0  0  0  0  0  0  0  0
   -2.5226   -1.5899    1.3263 H   0  0  0  0  0  0  0  0  0  0  0  0
   -1.9679   -2.0100   -0.3066 H   0  0  0  0  0  0  0  0  0  0  0  0
   -4.5965    1.8288   -0.7842 H   0  0  0  0  0  0  0  0  0  0  0  0
  1  2  1  0
  2  3  1  0
  3  4  1  0
  2  5  1  0
  5  6  2  0
  5  7  1  0
  7  8  1  0
  8  9  1  0
  8 10  1  0
 10 11  2  0
 10 12  1  0
  1 13  1  0
  1 14  1  0
  1 15  1  0
  2 16  1  6
  4 17  1  0
  4 18  1  0
  7 19  1  0
  8 20  1  1
  9 21  1  0
  9 22  1  0
  9 23  1  0
 12 24  1  0
M  END
$$$$

     RDKit          3D

 24 23  0  0  0  0  0  0  0  0999 V2000
   -2.3872    1.9508   -0.2799 C   0  0  0  0  0  0  0  0  0  0  0  0
   -1.9656    0.4932   -0.2563 C   0  0  2  0  0  0  0  0  0  0  0  0
   -2.0213    0.0741    1.0673 O   0  0  0  0  0  0  0  0  0  0  0  0
   -2.8701   -0.9568    1.2010 N   0  0  0  0  0  0  0  0  0  0  0  0
   -0.6023    0.3048   -0.7594 C   0  0  0  0  0  0  0  0  0  0  0  0
   -0.3355    0.6231   -1.9426 O   0  0  0  0  0  0  0  0  0  0  0  0
    0.4268   -0.2264    0.0484 N   0  0  0  0  0  0  0  0  0  0  0  0
    1.7697   -0.4085   -0.4576 C   0  0  2  0  0  0  0  0  0  0  0  0
    2.1499   -1.8763   -0.3873 C   0  0  0  0  0  0  0  0  0  0  0  0
    2.7244    0.3941    0.3395 C   0  0  0  0  0  0  0  0  0  0  0  0
    2.3007    1.0819    1.2816 O   0  0  0  0  0  0  0  0  0  0  0  0
    4.0968    0.3993    0.0599 O   0  0  0  0  0  0  0  0  0  0  0  0
   -1.7275    2.4889   -0.9824 H   0  0  0  0  0  0  0  0  0  0  0  0
   -2.2015    2.4112    0.7235 H   0  0  0  0  0  0  0  0  0  0  0  0
   -3.4396    2.0203   -0.5774 H   0  0  0  0  0  0  0  0  0  0  0  0
   -2.6445   -0.1415   -0.8600 H   0  0  0  0  0  0  0  0  0  0  0  0
   -3.6019   -0.9560    0.4580 H   0  0  0  0  0  0  0  0  0  0  0  0
   -3.2499   -1.0141    2.1571 H   0  0  0  0  0  0  0  0  0  0  0  0
    0.2607   -0.5086    1.0418 H   0  0  0  0  0  0  0  0  0  0  0  0
    1.7878   -0.0623   -1.5299 H   0  0  0  0  0  0  0  0  0  0  0  0
    2.5762   -2.1660   -1.3492 H   0  0  0  0  0  0  0  0  0  0  0  0
    1.2848   -2.5312   -0.1791 H   0  0  0  0  0  0  0  0  0  0  0  0
    2.9256   -2.0225    0.3916 H   0  0  0  0  0  0  0  0  0  0  0  0
    4.7433    0.6288    0.7913 H   0  0  0  0  0  0  0  0  0  0  0  0
  1  2  1  0
  2  3  1  0
  3  4  1  0
  2  5  1  0
  5  6  2  0
  5  7  1  0
  7  8  1  0
  8  9  1  0
  8 10  1  0
 10 11  2  0
 10 12  1  0
  1 13  1  0
  1 14  1  0
  1 15  1  0
  2 16  1  6
  4 17  1  0
  4 18  1  0
  7 19  1  0
  8 20  1  6
  9 21  1  0
  9 22  1  0
  9 23  1  0
 12 24  1  0
M  END
$$$$

     RDKit          3D

 24 23  0  0  0  0  0  0  0  0999 V2000
   -2.2369   -1.0725    0.7324 C   0  0  0  0  0  0  0  0  0  0  0  0
   -1.9285    0.3194    0.1930 C   0  0  2  0  0  0  0  0  0  0  0  0
   -2.8536    0.7076   -0.7432 O   0  0  0  0  0  0  0  0  0  0  0  0
   -3.4524    1.8489   -0.3943 N   0  0  0  0  0  0  0  0  0  0  0  0
   -0.5936    0.2264   -0.4592 C   0  0  0  0  0  0  0  0  0  0  0  0
   -0.5020    0.4981   -1.6964 O   0  0  0  0  0  0  0  0  0  0  0  0
    0.5776   -0.1481    0.2247 N   0  0  0  0  0  0  0  0  0  0  0  0
    1.8327   -0.2158   -0.4731 C   0  0  2  0  0  0  0  0  0  0  0  0
    2.3764   -1.6279   -0.3542 C   0  0  0  0  0  0  0  0  0  0  0  0
    2.7937    0.7288    0.1828 C   0  0  0  0  0  0  0  0  0  0  0  0
    2.4678    1.4278    1.1779 O   0  0  0  0  0  0  0  0  0  0  0  0
    4.0923    0.8671   -0.2901 O   0  0  0  0  0  0  0  0  0  0  0  0
   -2.8194   -1.5827   -0.0698 H   0  0  0  0  0  0  0  0  0  0  0  0
   -1.3204   -1.6026    1.0149 H   0  0  0  0  0  0  0  0  0  0  0  0
   -2.9367   -0.9217    1.5893 H   0  0  0  0  0  0  0  0  0  0  0  0
   -1.9143    1.0649    1.0139 H   0  0  0  0  0  0  0  0  0  0  0  0
   -3.6342    1.8642    0.6502 H   0  0  0  0  0  0  0  0  0  0  0  0
   -4.3350    2.0097   -0.9364 H   0  0  0  0  0  0  0  0  0  0  0  0
    0.5417   -0.3754    1.2275 H   0  0  0  0  0  0  0  0  0  0  0  0
    1.7060    0.0602   -1.5574 H   0  0  0  0  0  0  0  0  0  0  0  0
    3.0225   -1.7874   -1.2441 H   0  0  0  0  0  0  0  0  0  0  0  0
    1.5400   -2.3331   -0.3546 H   0  0  0  0  0  0  0  0  0  0  0  0
    3.0258   -1.7260    0.5552 H   0  0  0  0  0  0  0  0  0  0  0  0
    4.5506    1.7699   -0.3171 H   0  0  0  0  0  0  0  0  0  0  0  0
  1  2  1  0
  2  3  1  0
  3  4  1  0
  2  5  1  0
  5  6  2  0
  5  7  1  0
  7  8  1  0
  8  9  1  0
  8 10  1  0
 10 11  2  0
 10 12  1  0
  1 13  1  0
  1 14  1  0
  1 15  1  0
  2 16  1  1
  4 17  1  0
  4 18  1  0
  7 19  1  0
  8 20  1  6
  9 21  1  0
  9 22  1  0
  9 23  1  0
 12 24  1  0
M  END
$$$$

     RDKit          3D

 24 23  0  0  0  0  0  0  0  0999 V2000
   -2.2572    0.2543    1.4314 C   0  0  0  0  0  0  0  0  0  0  0  0
   -1.9310   -0.0980    0.0180 C   0  0  2  0  0  0  0  0  0  0  0  0
   -2.8243   -1.0816   -0.3947 O   0  0  0  0  0  0  0  0  0  0  0  0
   -3.6033   -0.7046   -1.4048 N   0  0  0  0  0  0  0  0  0  0  0  0
   -0.5755   -0.5530   -0.2215 C   0  0  0  0  0  0  0  0  0  0  0  0
   -0.3858   -1.6907   -0.7323 O   0  0  0  0  0  0  0  0  0  0  0  0
    0.5405    0.2659    0.1119 N   0  0  0  0  0  0  0  0  0  0  0  0
    1.8820   -0.1583   -0.1135 C   0  0  2  0  0  0  0  0  0  0  0  0
    2.7162   -0.2130    1.1421 C   0  0  0  0  0  0  0  0  0  0  0  0
    2.5733    0.7458   -1.0691 C   0  0  0  0  0  0  0  0  0  0  0  0
    1.9459    1.7212   -1.5447 O   0  0  0  0  0  0  0  0  0  0  0  0
    3.8814    0.5549   -1.4553 O   0  0  0  0  0  0  0  0  0  0  0  0
   -3.1671    0.8914    1.4409 H   0  0  0  0  0  0  0  0  0  0  0  0
   -1.4645    0.7899    1.9709 H   0  0  0  0  0  0  0  0  0  0  0  0
   -2.5122   -0.6450    2.0430 H   0  0  0  0  0  0  0  0  0  0  0  0
   -2.1272    0.7841   -0.6508 H   0  0  0  0  0  0  0  0  0  0  0  0
   -4.3369   -0.0155   -1.1693 H   0  0  0  0  0  0  0  0  0  0  0  0
   -3.9375   -1.5156   -1.9682 H   0  0  0  0  0  0  0  0  0  0  0  0
    0.3410    1.1841    0.5254 H   0  0  0  0  0  0  0  0  0  0  0  0
    1.9225   -1.1804   -0.5685 H   0  0  0  0  0  0  0  0  0  0  0  0
    2.4357    0.5589    1.8840 H   0  0  0  0  0  0  0  0  0  0  0  0
    2.6750   -1.2367    1.5560 H   0  0  0  0  0  0  0  0  0  0  0  0
    3.7748   -0.0259    0.8698 H   0  0  0  0  0  0  0  0  0  0  0  0
    4.4344    1.3680   -1.7008 H   0  0  0  0  0  0  0  0  0  0  0  0
  1  2  1  0
  2  3  1  0
  3  4  1  0
  2  5  1  0
  5  6  2  0
  5  7  1  0
  7  8  1  0
  8  9  1  0
  8 10  1  0
 10 11  2  0
 10 12  1  0
  1 13  1  0
  1 14  1  0
  1 15  1  0
  2 16  1  6
  4 17  1  0
  4 18  1  0
  7 19  1  0
  8 20  1  6
  9 21  1  0
  9 22  1  0
  9 23  1  0
 12 24  1  0
M  END
$$$$

     RDKit          3D

 24 23  0  0  0  0  0  0  0  0999 V2000
    2.7128    0.1159    1.3435 C   0  0  0  0  0  0  0  0  0  0  0  0
    1.9789   -0.4194    0.1211 C   0  0  2  0  0  0  0  0  0  0  0  0
    2.0290    0.4981   -0.9109 O   0  0  0  0  0  0  0  0  0  0  0  0
    2.6588    0.0055   -2.0002 N   0  0  0  0  0  0  0  0  0  0  0  0
    0.5801   -0.6774    0.5246 C   0  0  0  0  0  0  0  0  0  0  0  0
    0.3256   -1.4866    1.4520 O   0  0  0  0  0  0  0  0  0  0  0  0
   -0.4901   -0.0098   -0.1356 N   0  0  0  0  0  0  0  0  0  0  0  0
   -1.8610   -0.2390    0.2335 C   0  0  2  0  0  0  0  0  0  0  0  0
   -2.6448   -0.7796   -0.9663 C   0  0  0  0  0  0  0  0  0  0  0  0
   -2.4774    1.0460    0.6208 C   0  0  0  0  0  0  0  0  0  0  0  0
   -1.7765    2.0829    0.5787 O   0  0  0  0  0  0  0  0  0  0  0  0
   -3.8072    1.0781    1.0194 O   0  0  0  0  0  0  0  0  0  0  0  0
    3.8082    0.0129    1.2221 H   0  0  0  0  0  0  0  0  0  0  0  0
    2.4809    1.1899    1.4932 H   0  0  0  0  0  0  0  0  0  0  0  0
    2.4003   -0.4624    2.2558 H   0  0  0  0  0  0  0  0  0  0  0  0
    2.4890   -1.3596   -0.2268 H   0  0  0  0  0  0  0  0  0  0  0  0
    2.6812    0.7547   -2.7260 H   0  0  0  0  0  0  0  0  0  0  0  0
    3.6679   -0.1915   -1.7662 H   0  0  0  0  0  0  0  0  0  0  0  0
   -0.2160    0.6623   -0.9109 H   0  0  0  0  0  0  0  0  0  0  0  0
   -1.8772   -0.9755    1.0599 H   0  0  0  0  0  0  0  0  0  0  0  0
   -3.7216   -0.6172   -0.8029 H   0  0  0  0  0  0  0  0  0  0  0  0
   -2.4144   -1.8730   -1.0178 H   0  0  0  0  0  0  0  0  0  0  0  0
   -2.3170   -0.2887   -1.8898 H   0  0  0  0  0  0  0  0  0  0  0  0
   -4.2098    1.9336    1.4290 H   0  0  0  0  0  0  0  0  0  0  0  0
  1  2  1  0
  2  3  1  0
  3  4  1  0
  2  5  1  0
  5  6  2  0
  5  7  1  0
  7  8  1  0
  8  9  1  0
  8 10  1  0
 10 11  2  0
 10 12  1  0
  1 13  1  0
  1 14  1  0
  1 15  1  0
  2 16  1  6
  4 17  1  0
  4 18  1  0
  7 19  1  0
  8 20  1  1
  9 21  1  0
  9 22  1  0
  9 23  1  0
 12 24  1  0
M  END
$$$$

     RDKit          3D

 24 23  0  0  0  0  0  0  0  0999 V2000
    2.4569   -1.7695   -0.8699 C   0  0  0  0  0  0  0  0  0  0  0  0
    1.9827   -0.3734   -0.5173 C   0  0  2  0  0  0  0  0  0  0  0  0
    2.2688   -0.0697    0.7959 O   0  0  0  0  0  0  0  0  0  0  0  0
    3.1373    0.9630    0.8855 N   0  0  0  0  0  0  0  0  0  0  0  0
    0.5369   -0.2060   -0.8346 C   0  0  0  0  0  0  0  0  0  0  0  0
    0.1574   -0.4543   -2.0029 O   0  0  0  0  0  0  0  0  0  0  0  0
   -0.4256    0.2182    0.1155 N   0  0  0  0  0  0  0  0  0  0  0  0
   -1.8086    0.3560   -0.2708 C   0  0  2  0  0  0  0  0  0  0  0  0
   -2.3060    1.7790   -0.0953 C   0  0  0  0  0  0  0  0  0  0  0  0
   -2.6919   -0.5533    0.5083 C   0  0  0  0  0  0  0  0  0  0  0  0
   -2.2247   -1.3299    1.3897 O   0  0  0  0  0  0  0  0  0  0  0  0
   -4.0643   -0.6004    0.3141 O   0  0  0  0  0  0  0  0  0  0  0  0
    2.5185   -2.4169    0.0328 H   0  0  0  0  0  0  0  0  0  0  0  0
    3.4656   -1.7289   -1.3038 H   0  0  0  0  0  0  0  0  0  0  0  0
    1.7786   -2.1971   -1.6388 H   0  0  0  0  0  0  0  0  0  0  0  0
    2.5571    0.3296   -1.1699 H   0  0  0  0  0  0  0  0  0  0  0  0
    2.7410    1.7594    0.3326 H   0  0  0  0  0  0  0  0  0  0  0  0
    4.0450    0.6652    0.4371 H   0  0  0  0  0  0  0  0  0  0  0  0
   -0.0862    0.4173    1.0750 H   0  0  0  0  0  0  0  0  0  0  0  0
   -1.9486    0.0934   -1.3367 H   0  0  0  0  0  0  0  0  0  0  0  0
   -2.7239    1.8955    0.9455 H   0  0  0  0  0  0  0  0  0  0  0  0
   -3.1635    1.9107   -0.7846 H   0  0  0  0  0  0  0  0  0  0  0  0
   -1.5306    2.5291   -0.2621 H   0  0  0  0  0  0  0  0  0  0  0  0
   -4.6720   -1.2171    0.8677 H   0  0  0  0  0  0  0  0  0  0  0  0
  1  2  1  0
  2  3  1  0
  3  4  1  0
  2  5  1  0
  5  6  2  0
  5  7  1  0
  7  8  1  0
  8  9  1  0
  8 10  1  0
 10 11  2  0
 10 12  1  0
  1 13  1  0
  1 14  1  0
  1 15  1  0
  2 16  1  6
  4 17  1  0
  4 18  1  0
  7 19  1  0
  8 20  1  6
  9 21  1  0
  9 22  1  0
  9 23  1  0
 12 24  1  0
M  END
$$$$
