
     RDKit          3D

 23 23  0  0  0  0  0  0  0  0999 V2000
   -1.0285    1.3632   -0.8151 C   0  0  0  0  0  0  0  0  0  0  0  0
   -1.0700    0.0881   -0.1536 N   0  0  0  0  0  0  0  0  0  0  0  0
   -2.0551   -0.9299   -0.2548 C   0  0  0  0  0  0  0  0  0  0  0  0
   -2.9472   -1.0862   -1.3779 N   0  0  0  0  0  0  0  0  0  0  0  0
   -2.0244   -1.6895    0.8148 N   0  0  0  0  0  0  0  0  0  0  0  0
   -1.0099   -1.2098    1.6841 C   0  0  0  0  0  0  0  0  0  0  0  0
   -0.9883   -1.4187    2.9092 O   0  0  0  0  0  0  0  0  0  0  0  0
   -0.0858   -0.4680    0.7974 C   0  0  2  0  0  0  0  0  0  0  0  0
    0.6960    0.4367    1.3672 O   0  0  0  0  0  0  0  0  0  0  0  0
    2.0288    0.4737    1.2235 C   0  0  0  0  0  0  0  0  0  0  0  0
    2.4222    0.7178   -0.2091 C   0  0  0  0  0  0  0  0  0  0  0  0
    1.9878   -0.2327   -1.1081 O   0  0  0  0  0  0  0  0  0  0  0  0
   -0.4453    1.2560   -1.7541 H   0  0  0  0  0  0  0  0  0  0  0  0
   -0.4813    2.1367   -0.2016 H   0  0  0  0  0  0  0  0  0  0  0  0
   -2.0516    1.7712   -0.9895 H   0  0  0  0  0  0  0  0  0  0  0  0
   -3.4584   -0.2411   -1.7141 H   0  0  0  0  0  0  0  0  0  0  0  0
   -3.1033   -1.9752   -1.8578 H   0  0  0  0  0  0  0  0  0  0  0  0
    0.4563   -1.2250    0.2052 H   0  0  0  0  0  0  0  0  0  0  0  0
    2.5013    1.2879    1.8304 H   0  0  0  0  0  0  0  0  0  0  0  0
    2.5715   -0.4476    1.5330 H   0  0  0  0  0  0  0  0  0  0  0  0
    2.0141    1.7077   -0.5701 H   0  0  0  0  0  0  0  0  0  0  0  0
    3.5333    0.7215   -0.2527 H   0  0  0  0  0  0  0  0  0  0  0  0
    2.5378   -1.0365   -0.9847 H   0  0  0  0  0  0  0  0  0  0  0  0
  1  2  1  0
  2  3  1  0
  3  4  1  0
  3  5  2  0
  5  6  1  0
  6  7  2  0
  6  8  1  0
  8  9  1  0
  9 10  1  0
 10 11  1  0
 11 12  1  0
  8  2  1  0
  1 13  1  0
  1 14  1  0
  1 15  1  0
  4 16  1  0
  4 17  1  0
  8 18  1  6
 10 19  1  0
 10 20  1  0
 11 21  1  0
 11 22  1  0
 12 23  1  0
M  END
$$$$

     RDKit          3D

 23 23  0  0  0  0  0  0  0  0999 V2000
   -1.0269   -1.1536   -0.9687 C   0  0  0  0  0  0  0  0  0  0  0  0
   -1.0607   -0.2895    0.1944 N   0  0  0  0  0  0  0  0  0  0  0  0
   -2.1681    0.4555    0.6837 C   0  0  0  0  0  0  0  0  0  0  0  0
   -3.3016    0.7705   -0.1416 N   0  0  0  0  0  0  0  0  0  0  0  0
   -1.9863    0.7798    1.9265 N   0  0  0  0  0  0  0  0  0  0  0  0
   -0.7218    0.2672    2.3691 C   0  0  0  0  0  0  0  0  0  0  0  0
   -0.2938    0.0644    3.5159 O   0  0  0  0  0  0  0  0  0  0  0  0
    0.0362    0.0043    1.1181 C   0  0  2  0  0  0  0  0  0  0  0  0
    0.8018    1.0592    0.7127 O   0  0  0  0  0  0  0  0  0  0  0  0
    2.1257    0.8193    0.4841 C   0  0  0  0  0  0  0  0  0  0  0  0
    2.3788   -0.2066   -0.5925 C   0  0  0  0  0  0  0  0  0  0  0  0
    1.8424    0.1834   -1.8192 O   0  0  0  0  0  0  0  0  0  0  0  0
   -0.7876   -0.6144   -1.8975 H   0  0  0  0  0  0  0  0  0  0  0  0
   -1.9915   -1.6700   -1.1398 H   0  0  0  0  0  0  0  0  0  0  0  0
   -0.2846   -1.9693   -0.7729 H   0  0  0  0  0  0  0  0  0  0  0  0
   -3.9392    0.0332   -0.5071 H   0  0  0  0  0  0  0  0  0  0  0  0
   -3.4371    1.8002   -0.3474 H   0  0  0  0  0  0  0  0  0  0  0  0
    0.6624   -0.9035    1.1942 H   0  0  0  0  0  0  0  0  0  0  0  0
    2.5899    1.7663    0.1404 H   0  0  0  0  0  0  0  0  0  0  0  0
    2.7019    0.5000    1.3748 H   0  0  0  0  0  0  0  0  0  0  0  0
    1.9484   -1.1990   -0.3505 H   0  0  0  0  0  0  0  0  0  0  0  0
    3.4642   -0.3787   -0.7438 H   0  0  0  0  0  0  0  0  0  0  0  0
    2.4474   -0.1185   -2.5647 H   0  0  0  0  0  0  0  0  0  0  0  0
  1  2  1  0
  2  3  1  0
  3  4  1  0
  3  5  2  0
  5  6  1  0
  6  7  2  0
  6  8  1  0
  8  9  1  0
  9 10  1  0
 10 11  1  0
 11 12  1  0
  8  2  1  0
  1 13  1  0
  1 14  1  0
  1 15  1  0
  4 16  1  0
  4 17  1  0
  8 18  1  1
 10 19  1  0
 10 20  1  0
 11 21  1  0
 11 22  1  0
 12 23  1  0
M  END
$$$$

     RDKit          3D

 23 23  0  0  0  0  0  0  0  0999 V2000
   -1.8159   -1.0481   -1.4241 C   0  0  0  0  0  0  0  0  0  0  0  0
   -1.4661   -0.2840   -0.2391 N   0  0  0  0  0  0  0  0  0  0  0  0
   -2.0987    0.8812    0.2786 C   0  0  0  0  0  0  0  0  0  0  0  0
   -2.9066    1.7598   -0.5277 N   0  0  0  0  0  0  0  0  0  0  0  0
   -1.8346    1.0085    1.5435 N   0  0  0  0  0  0  0  0  0  0  0  0
   -1.0013   -0.0720    1.9576 C   0  0  0  0  0  0  0  0  0  0  0  0
   -0.8266   -0.5296    3.1182 O   0  0  0  0  0  0  0  0  0  0  0  0
   -0.3724   -0.5485    0.6937 C   0  0  2  0  0  0  0  0  0  0  0  0
    0.7139    0.2839    0.3981 O   0  0  0  0  0  0  0  0  0  0  0  0
    1.8669   -0.4807    0.2129 C   0  0  0  0  0  0  0  0  0  0  0  0
    3.0095    0.4680   -0.1038 C   0  0  0  0  0  0  0  0  0  0  0  0
    4.1923   -0.2451   -0.2993 O   0  0  0  0  0  0  0  0  0  0  0  0
   -2.9025   -1.1933   -1.5272 H   0  0  0  0  0  0  0  0  0  0  0  0
   -1.4468   -0.5846   -2.3559 H   0  0  0  0  0  0  0  0  0  0  0  0
   -1.3267   -2.0410   -1.3112 H   0  0  0  0  0  0  0  0  0  0  0  0
   -2.6928    1.9687   -1.5261 H   0  0  0  0  0  0  0  0  0  0  0  0
   -3.7496    2.2237   -0.1257 H   0  0  0  0  0  0  0  0  0  0  0  0
   -0.0969   -1.6072    0.7178 H   0  0  0  0  0  0  0  0  0  0  0  0
    2.1360   -1.0198    1.1306 H   0  0  0  0  0  0  0  0  0  0  0  0
    1.7103   -1.1357   -0.6653 H   0  0  0  0  0  0  0  0  0  0  0  0
    3.1937    1.1711    0.7236 H   0  0  0  0  0  0  0  0  0  0  0  0
    2.8275    1.0452   -1.0372 H   0  0  0  0  0  0  0  0  0  0  0  0
    4.8874   -0.0207    0.3678 H   0  0  0  0  0  0  0  0  0  0  0  0
  1  2  1  0
  2  3  1  0
  3  4  1  0
  3  5  2  0
  5  6  1  0
  6  7  2  0
  6  8  1  0
  8  9  1  0
  9 10  1  0
 10 11  1  0
 11 12  1  0
  8  2  1  0
  1 13  1  0
  1 14  1  0
  1 15  1  0
  4 16  1  0
  4 17  1  0
  8 18  1  1
 10 19  1  0
 10 20  1  0
 11 21  1  0
 11 22  1  0
 12 23  1  0
M  END
$$$$

     RDKit          3D

 23 23  0  0  0  0  0  0  0  0999 V2000
   -1.2962   -1.2742    0.9460 C   0  0  0  0  0  0  0  0  0  0  0  0
   -1.0671    0.0996    0.5285 N   0  0  0  0  0  0  0  0  0  0  0  0
   -2.0802    1.0577    0.2519 C   0  0  0  0  0  0  0  0  0  0  0  0
   -3.4481    0.7344   -0.0523 N   0  0  0  0  0  0  0  0  0  0  0  0
   -1.5769    2.2513    0.3178 N   0  0  0  0  0  0  0  0  0  0  0  0
   -0.2006    2.1828    0.6405 C   0  0  0  0  0  0  0  0  0  0  0  0
    0.6045    3.0151    1.0949 O   0  0  0  0  0  0  0  0  0  0  0  0
    0.2007    0.7702    0.3104 C   0  0  2  0  0  0  0  0  0  0  0  0
    0.6136    0.6445   -0.9914 O   0  0  0  0  0  0  0  0  0  0  0  0
    1.8656    0.1151   -1.1608 C   0  0  0  0  0  0  0  0  0  0  0  0
    2.0351   -1.2707   -0.6018 C   0  0  0  0  0  0  0  0  0  0  0  0
    3.3723   -1.6449   -0.8676 O   0  0  0  0  0  0  0  0  0  0  0  0
   -1.6686   -1.9096    0.1164 H   0  0  0  0  0  0  0  0  0  0  0  0
   -0.3377   -1.6920    1.3172 H   0  0  0  0  0  0  0  0  0  0  0  0
   -2.0109   -1.3402    1.7945 H   0  0  0  0  0  0  0  0  0  0  0  0
   -4.2010    1.3605    0.2976 H   0  0  0  0  0  0  0  0  0  0  0  0
   -3.7408   -0.0963   -0.6075 H   0  0  0  0  0  0  0  0  0  0  0  0
    0.9690    0.4126    1.0439 H   0  0  0  0  0  0  0  0  0  0  0  0
    2.6809    0.7381   -0.7410 H   0  0  0  0  0  0  0  0  0  0  0  0
    2.0563    0.0466   -2.2555 H   0  0  0  0  0  0  0  0  0  0  0  0
    1.8859   -1.3237    0.4928 H   0  0  0  0  0  0  0  0  0  0  0  0
    1.4134   -2.0279   -1.1322 H   0  0  0  0  0  0  0  0  0  0  0  0
    3.9307   -0.8490   -0.7422 H   0  0  0  0  0  0  0  0  0  0  0  0
  1  2  1  0
  2  3  1  0
  3  4  1  0
  3  5  2  0
  5  6  1  0
  6  7  2  0
  6  8  1  0
  8  9  1  0
  9 10  1  0
 10 11  1  0
 11 12  1  0
  8  2  1  0
  1 13  1  0
  1 14  1  0
  1 15  1  0
  4 16  1  0
  4 17  1  0
  8 18  1  1
 10 19  1  0
 10 20  1  0
 11 21  1  0
 11 22  1  0
 12 23  1  0
M  END
$$$$

     RDKit          3D

 23 23  0  0  0  0  0  0  0  0999 V2000
   -1.9305    1.5536    0.0094 C   0  0  0  0  0  0  0  0  0  0  0  0
   -1.4654    0.2056   -0.2447 N   0  0  0  0  0  0  0  0  0  0  0  0
   -2.1287   -1.0332   -0.0301 C   0  0  0  0  0  0  0  0  0  0  0  0
   -3.2486   -1.1603    0.8554 N   0  0  0  0  0  0  0  0  0  0  0  0
   -1.5629   -1.9650   -0.7427 N   0  0  0  0  0  0  0  0  0  0  0  0
   -0.4800   -1.4206   -1.4867 C   0  0  0  0  0  0  0  0  0  0  0  0
    0.0891   -1.9107   -2.4939 O   0  0  0  0  0  0  0  0  0  0  0  0
   -0.1702   -0.1221   -0.7921 C   0  0  2  0  0  0  0  0  0  0  0  0
    0.7498   -0.4468    0.2117 O   0  0  0  0  0  0  0  0  0  0  0  0
    1.8852    0.3207   -0.0225 C   0  0  0  0  0  0  0  0  0  0  0  0
    2.9627    0.0506    1.0141 C   0  0  0  0  0  0  0  0  0  0  0  0
    4.0496    0.8659    0.6883 O   0  0  0  0  0  0  0  0  0  0  0  0
   -3.0411    1.5575    0.1781 H   0  0  0  0  0  0  0  0  0  0  0  0
   -1.7307    2.1885   -0.8941 H   0  0  0  0  0  0  0  0  0  0  0  0
   -1.4830    2.0075    0.9081 H   0  0  0  0  0  0  0  0  0  0  0  0
   -4.1141   -0.6025    0.7090 H   0  0  0  0  0  0  0  0  0  0  0  0
   -3.1474   -1.8307    1.6386 H   0  0  0  0  0  0  0  0  0  0  0  0
    0.2129    0.6270   -1.4892 H   0  0  0  0  0  0  0  0  0  0  0  0
    1.6104    1.3784   -0.0428 H   0  0  0  0  0  0  0  0  0  0  0  0
    2.2949    0.0191   -1.0097 H   0  0  0  0  0  0  0  0  0  0  0  0
    3.2535   -1.0010    1.0074 H   0  0  0  0  0  0  0  0  0  0  0  0
    2.5860    0.3725    2.0154 H   0  0  0  0  0  0  0  0  0  0  0  0
    4.8083    0.3459    0.3301 H   0  0  0  0  0  0  0  0  0  0  0  0
  1  2  1  0
  2  3  1  0
  3  4  1  0
  3  5  2  0
  5  6  1  0
  6  7  2  0
  6  8  1  0
  8  9  1  0
  9 10  1  0
 10 11  1  0
 11 12  1  0
  8  2  1  0
  1 13  1  0
  1 14  1  0
  1 15  1  0
  4 16  1  0
  4 17  1  0
  8 18  1  6
 10 19  1  0
 10 20  1  0
 11 21  1  0
 11 22  1  0
 12 23  1  0
M  END
$$$$

     RDKit          3D

 23 23  0  0  0  0  0  0  0  0999 V2000
   -1.6945   -1.6349   -0.3623 C   0  0  0  0  0  0  0  0  0  0  0  0
   -1.3830   -0.2419   -0.1341 N   0  0  0  0  0  0  0  0  0  0  0  0
   -2.1125    0.8677   -0.6377 C   0  0  0  0  0  0  0  0  0  0  0  0
   -3.1197    0.8257   -1.6453 N   0  0  0  0  0  0  0  0  0  0  0  0
   -1.7125    1.9534   -0.0256 N   0  0  0  0  0  0  0  0  0  0  0  0
   -0.6974    1.6491    0.9213 C   0  0  0  0  0  0  0  0  0  0  0  0
   -0.2264    2.4017    1.8328 O   0  0  0  0  0  0  0  0  0  0  0  0
   -0.2748    0.2564    0.6465 C   0  0  2  0  0  0  0  0  0  0  0  0
    0.9012    0.3247   -0.1002 O   0  0  0  0  0  0  0  0  0  0  0  0
    1.8778   -0.3832    0.5952 C   0  0  0  0  0  0  0  0  0  0  0  0
    3.2035   -0.3691   -0.1384 C   0  0  0  0  0  0  0  0  0  0  0  0
    3.6675    0.9341   -0.3074 O   0  0  0  0  0  0  0  0  0  0  0  0
   -0.7381   -2.1949   -0.3579 H   0  0  0  0  0  0  0  0  0  0  0  0
   -2.3829   -2.0482    0.4017 H   0  0  0  0  0  0  0  0  0  0  0  0
   -2.2321   -1.7096   -1.3310 H   0  0  0  0  0  0  0  0  0  0  0  0
   -3.8542    0.0943   -1.6804 H   0  0  0  0  0  0  0  0  0  0  0  0
   -3.1255    1.5731   -2.3975 H   0  0  0  0  0  0  0  0  0  0  0  0
   -0.1341   -0.3300    1.5801 H   0  0  0  0  0  0  0  0  0  0  0  0
    1.9850    0.0535    1.6045 H   0  0  0  0  0  0  0  0  0  0  0  0
    1.5596   -1.4380    0.7221 H   0  0  0  0  0  0  0  0  0  0  0  0
    3.1325   -0.8942   -1.1034 H   0  0  0  0  0  0  0  0  0  0  0  0
    3.9572   -0.9155    0.4638 H   0  0  0  0  0  0  0  0  0  0  0  0
    3.4035    1.2257   -1.2310 H   0  0  0  0  0  0  0  0  0  0  0  0
  1  2  1  0
  2  3  1  0
  3  4  1  0
  3  5  2  0
  5  6  1  0
  6  7  2  0
  6  8  1  0
  8  9  1  0
  9 10  1  0
 10 11  1  0
 11 12  1  0
  8  2  1  0
  1 13  1  0
  1 14  1  0
  1 15  1  0
  4 16  1  0
  4 17  1  0
  8 18  1  1
 10 19  1  0
 10 20  1  0
 11 21  1  0
 11 22  1  0
 12 23  1  0
M  END
$$$$

     RDKit          3D

 23 23  0  0  0  0  0  0  0  0999 V2000
    0.9761    0.5740    1.6409 C   0  0  0  0  0  0  0  0  0  0  0  0
    1.0110   -0.1638    0.4010 N   0  0  0  0  0  0  0  0  0  0  0  0
    2.0877   -0.1711   -0.5348 C   0  0  0  0  0  0  0  0  0  0  0  0
    3.0543    0.8635   -0.6316 N   0  0  0  0  0  0  0  0  0  0  0  0
    2.0301   -1.2626   -1.2632 N   0  0  0  0  0  0  0  0  0  0  0  0
    0.9124   -2.0401   -0.8514 C   0  0  0  0  0  0  0  0  0  0  0  0
    0.6615   -3.2638   -0.9727 O   0  0  0  0  0  0  0  0  0  0  0  0
    0.0051   -1.0494   -0.1866 C   0  0  2  0  0  0  0  0  0  0  0  0
   -0.6500   -0.3248   -1.1433 O   0  0  0  0  0  0  0  0  0  0  0  0
   -2.0121   -0.2667   -1.0565 C   0  0  0  0  0  0  0  0  0  0  0  0
   -2.3963    0.3639    0.2634 C   0  0  0  0  0  0  0  0  0  0  0  0
   -1.8607    1.6542    0.3283 O   0  0  0  0  0  0  0  0  0  0  0  0
    1.6429    0.0963    2.4110 H   0  0  0  0  0  0  0  0  0  0  0  0
   -0.0167    0.6262    2.0891 H   0  0  0  0  0  0  0  0  0  0  0  0
    1.3647    1.5978    1.4702 H   0  0  0  0  0  0  0  0  0  0  0  0
    3.4954    1.3116    0.1899 H   0  0  0  0  0  0  0  0  0  0  0  0
    3.3390    1.1937   -1.5735 H   0  0  0  0  0  0  0  0  0  0  0  0
   -0.6305   -1.5254    0.5742 H   0  0  0  0  0  0  0  0  0  0  0  0
   -2.5271   -1.2221   -1.2345 H   0  0  0  0  0  0  0  0  0  0  0  0
   -2.3480    0.4707   -1.8441 H   0  0  0  0  0  0  0  0  0  0  0  0
   -3.5094    0.4243    0.2917 H   0  0  0  0  0  0  0  0  0  0  0  0
   -2.0599   -0.2010    1.1453 H   0  0  0  0  0  0  0  0  0  0  0  0
   -2.5697    2.3144    0.4874 H   0  0  0  0  0  0  0  0  0  0  0  0
  1  2  1  0
  2  3  1  0
  3  4  1  0
  3  5  2  0
  5  6  1  0
  6  7  2  0
  6  8  1  0
  8  9  1  0
  9 10  1  0
 10 11  1  0
 11 12  1  0
  8  2  1  0
  1 13  1  0
  1 14  1  0
  1 15  1  0
  4 16  1  0
  4 17  1  0
  8 18  1  1
 10 19  1  0
 10 20  1  0
 11 21  1  0
 11 22  1  0
 12 23  1  0
M  END
$$$$

     RDKit          3D

 23 23  0  0  0  0  0  0  0  0999 V2000
   -1.9224   -1.2481    0.7639 C   0  0  0  0  0  0  0  0  0  0  0  0
   -1.3258   -0.1253    0.1171 N   0  0  0  0  0  0  0  0  0  0  0  0
   -1.9519    1.0885   -0.2884 C   0  0  0  0  0  0  0  0  0  0  0  0
   -3.1411    1.6249    0.3193 N   0  0  0  0  0  0  0  0  0  0  0  0
   -1.2803    1.6221   -1.2838 N   0  0  0  0  0  0  0  0  0  0  0  0
   -0.1730    0.7895   -1.5907 C   0  0  0  0  0  0  0  0  0  0  0  0
    0.4975    0.6207   -2.6314 O   0  0  0  0  0  0  0  0  0  0  0  0
    0.0820    0.0610   -0.2929 C   0  0  2  0  0  0  0  0  0  0  0  0
    0.7434   -1.0993   -0.4600 O   0  0  0  0  0  0  0  0  0  0  0  0
    1.8579   -1.1911    0.3244 C   0  0  0  0  0  0  0  0  0  0  0  0
    2.9524   -0.2200    0.0899 C   0  0  0  0  0  0  0  0  0  0  0  0
    2.6781    1.1074    0.2375 O   0  0  0  0  0  0  0  0  0  0  0  0
   -1.3261   -2.1666    0.4883 H   0  0  0  0  0  0  0  0  0  0  0  0
   -1.9327   -1.1840    1.8743 H   0  0  0  0  0  0  0  0  0  0  0  0
   -2.9520   -1.4632    0.4414 H   0  0  0  0  0  0  0  0  0  0  0  0
   -3.1539    2.5867    0.7223 H   0  0  0  0  0  0  0  0  0  0  0  0
   -4.0043    1.0687    0.3683 H   0  0  0  0  0  0  0  0  0  0  0  0
    0.4732    0.7770    0.4549 H   0  0  0  0  0  0  0  0  0  0  0  0
    1.6060   -1.1933    1.4267 H   0  0  0  0  0  0  0  0  0  0  0  0
    2.3077   -2.2222    0.1812 H   0  0  0  0  0  0  0  0  0  0  0  0
    3.4265   -0.4117   -0.9004 H   0  0  0  0  0  0  0  0  0  0  0  0
    3.7545   -0.4582    0.8527 H   0  0  0  0  0  0  0  0  0  0  0  0
    2.7844    1.6365   -0.5873 H   0  0  0  0  0  0  0  0  0  0  0  0
  1  2  1  0
  2  3  1  0
  3  4  1  0
  3  5  2  0
  5  6  1  0
  6  7  2  0
  6  8  1  0
  8  9  1  0
  9 10  1  0
 10 11  1  0
 11 12  1  0
  8  2  1  0
  1 13  1  0
  1 14  1  0
  1 15  1  0
  4 16  1  0
  4 17  1  0
  8 18  1  1
 10 19  1  0
 10 20  1  0
 11 21  1  0
 11 22  1  0
 12 23  1  0
M  END
$$$$
