
     RDKit          3D

 19 18  0  0  0  0  0  0  0  0999 V2000
    2.8489   -0.3722    0.9856 O   0  0  0  0  0  0  0  0  0  0  0  0
    2.2130   -0.8268   -0.1495 C   0  0  0  0  0  0  0  0  0  0  0  0
    1.1614    0.1489   -0.6607 C   0  0  2  0  0  0  0  0  0  0  0  0
    1.7958    1.3481   -0.9562 O   0  0  0  0  0  0  0  0  0  0  0  0
    0.1925    0.2760    0.3225 O   0  0  0  0  0  0  0  0  0  0  0  0
   -1.0013   -0.2015   -0.1616 C   0  0  0  0  0  0  0  0  0  0  0  0
   -2.1206   -0.1024    0.8468 C   0  0  0  0  0  0  0  0  0  0  0  0
   -3.2828   -0.5982    0.2929 O   0  0  0  0  0  0  0  0  0  0  0  0
   -2.3562    1.2590    1.1349 O   0  0  0  0  0  0  0  0  0  0  0  0
    2.8263    0.5994    1.1014 H   0  0  0  0  0  0  0  0  0  0  0  0
    2.9633   -1.0727   -0.9291 H   0  0  0  0  0  0  0  0  0  0  0  0
    1.7128   -1.7963    0.1290 H   0  0  0  0  0  0  0  0  0  0  0  0
    0.7417   -0.2968   -1.5740 H   0  0  0  0  0  0  0  0  0  0  0  0
    1.9089    1.9337   -0.1918 H   0  0  0  0  0  0  0  0  0  0  0  0
   -1.2971    0.4309   -1.0335 H   0  0  0  0  0  0  0  0  0  0  0  0
   -0.9299   -1.2438   -0.5296 H   0  0  0  0  0  0  0  0  0  0  0  0
   -1.8927   -0.6487    1.7789 H   0  0  0  0  0  0  0  0  0  0  0  0
   -3.1846   -0.6166   -0.6964 H   0  0  0  0  0  0  0  0  0  0  0  0
   -2.2994    1.7801    0.2902 H   0  0  0  0  0  0  0  0  0  0  0  0
  1  2  1  0
  2  3  1  0
  3  4  1  0
  3  5  1  0
  5  6  1  0
  6  7  1  0
  7  8  1  0
  7  9  1  0
  1 10  1  0
  2 11  1  0
  2 12  1  0
  3 13  1  6
  4 14  1  0
  6 15  1  0
  6 16  1  0
  7 17  1  0
  8 18  1  0
  9 19  1  0
M  END
$$$$

     RDKit          3D

 19 18  0  0  0  0  0  0  0  0999 V2000
    2.5747    0.7612    0.4411 O   0  0  0  0  0  0  0  0  0  0  0  0
    1.5589   -0.0318    0.9406 C   0  0  0  0  0  0  0  0  0  0  0  0
    0.9366   -0.8169   -0.2259 C   0  0  2  0  0  0  0  0  0  0  0  0
    1.9915   -1.5796   -0.7478 O   0  0  0  0  0  0  0  0  0  0  0  0
    0.4377    0.0857   -1.0989 O   0  0  0  0  0  0  0  0  0  0  0  0
   -0.8825    0.1291   -1.3750 C   0  0  0  0  0  0  0  0  0  0  0  0
   -1.7236    0.4711   -0.1734 C   0  0  0  0  0  0  0  0  0  0  0  0
   -1.3067    1.7363    0.2835 O   0  0  0  0  0  0  0  0  0  0  0  0
   -1.6941   -0.4619    0.8254 O   0  0  0  0  0  0  0  0  0  0  0  0
    2.4916    1.7063    0.6519 H   0  0  0  0  0  0  0  0  0  0  0  0
    0.7919    0.4878    1.5150 H   0  0  0  0  0  0  0  0  0  0  0  0
    2.0292   -0.7889    1.6023 H   0  0  0  0  0  0  0  0  0  0  0  0
    0.2144   -1.5151    0.2293 H   0  0  0  0  0  0  0  0  0  0  0  0
    2.2565   -2.2235   -0.0249 H   0  0  0  0  0  0  0  0  0  0  0  0
   -1.2734   -0.7682   -1.9112 H   0  0  0  0  0  0  0  0  0  0  0  0
   -1.0283    1.0048   -2.0826 H   0  0  0  0  0  0  0  0  0  0  0  0
   -2.8022    0.6062   -0.5074 H   0  0  0  0  0  0  0  0  0  0  0  0
   -2.0405    2.1706    0.8116 H   0  0  0  0  0  0  0  0  0  0  0  0
   -2.5319   -0.9732    0.8463 H   0  0  0  0  0  0  0  0  0  0  0  0
  1  2  1  0
  2  3  1  0
  3  4  1  0
  3  5  1  0
  5  6  1  0
  6  7  1  0
  7  8  1  0
  7  9  1  0
  1 10  1  0
  2 11  1  0
  2 12  1  0
  3 13  1  1
  4 14  1  0
  6 15  1  0
  6 16  1  0
  7 17  1  0
  8 18  1  0
  9 19  1  0
M  END
$$$$

     RDKit          3D

 19 18  0  0  0  0  0  0  0  0999 V2000
   -2.4590   -1.7771    0.2338 O   0  0  0  0  0  0  0  0  0  0  0  0
   -1.6898   -0.7706   -0.3457 C   0  0  0  0  0  0  0  0  0  0  0  0
   -1.1407    0.1952    0.6959 C   0  0  2  0  0  0  0  0  0  0  0  0
   -2.2249    0.7990    1.3833 O   0  0  0  0  0  0  0  0  0  0  0  0
   -0.4407    1.1631    0.0391 O   0  0  0  0  0  0  0  0  0  0  0  0
    0.8848    1.3039    0.2736 C   0  0  0  0  0  0  0  0  0  0  0  0
    1.7220    0.1486   -0.1286 C   0  0  0  0  0  0  0  0  0  0  0  0
    1.4086   -1.0052    0.5213 O   0  0  0  0  0  0  0  0  0  0  0  0
    3.0907    0.4441    0.0974 O   0  0  0  0  0  0  0  0  0  0  0  0
   -2.3043   -2.6690   -0.1958 H   0  0  0  0  0  0  0  0  0  0  0  0
   -2.3316   -0.1464   -1.0181 H   0  0  0  0  0  0  0  0  0  0  0  0
   -0.8985   -1.2342   -0.9390 H   0  0  0  0  0  0  0  0  0  0  0  0
   -0.5121   -0.3509    1.3898 H   0  0  0  0  0  0  0  0  0  0  0  0
   -2.5886    1.4912    0.7858 H   0  0  0  0  0  0  0  0  0  0  0  0
    1.0869    1.5693    1.3497 H   0  0  0  0  0  0  0  0  0  0  0  0
    1.2779    2.1975   -0.3053 H   0  0  0  0  0  0  0  0  0  0  0  0
    1.5797   -0.0396   -1.2206 H   0  0  0  0  0  0  0  0  0  0  0  0
    2.0841   -1.1989    1.2059 H   0  0  0  0  0  0  0  0  0  0  0  0
    3.4556   -0.1199    0.8306 H   0  0  0  0  0  0  0  0  0  0  0  0
  1  2  1  0
  2  3  1  0
  3  4  1  0
  3  5  1  0
  5  6  1  0
  6  7  1  0
  7  8  1  0
  7  9  1  0
  1 10  1  0
  2 11  1  0
  2 12  1  0
  3 13  1  1
  4 14  1  0
  6 15  1  0
  6 16  1  0
  7 17  1  0
  8 18  1  0
  9 19  1  0
M  END
$$$$

     RDKit          3D

 19 18  0  0  0  0  0  0  0  0999 V2000
    3.3546   -0.3815   -0.5258 O   0  0  0  0  0  0  0  0  0  0  0  0
    2.2932   -0.0984    0.3331 C   0  0  0  0  0  0  0  0  0  0  0  0
    1.0584    0.1975   -0.4916 C   0  0  2  0  0  0  0  0  0  0  0  0
    1.3768    1.3111   -1.2946 O   0  0  0  0  0  0  0  0  0  0  0  0
   -0.0100    0.4440    0.3404 O   0  0  0  0  0  0  0  0  0  0  0  0
   -1.0735   -0.3957    0.0852 C   0  0  0  0  0  0  0  0  0  0  0  0
   -2.2071   -0.0666    1.0353 C   0  0  0  0  0  0  0  0  0  0  0  0
   -2.5948    1.2472    0.8466 O   0  0  0  0  0  0  0  0  0  0  0  0
   -3.3060   -0.8718    0.6907 O   0  0  0  0  0  0  0  0  0  0  0  0
    4.1204    0.1834   -0.3371 H   0  0  0  0  0  0  0  0  0  0  0  0
    2.5806    0.7623    0.9640 H   0  0  0  0  0  0  0  0  0  0  0  0
    2.1645   -0.9741    0.9987 H   0  0  0  0  0  0  0  0  0  0  0  0
    0.8556   -0.6271   -1.2035 H   0  0  0  0  0  0  0  0  0  0  0  0
    0.8101    1.3295   -2.1009 H   0  0  0  0  0  0  0  0  0  0  0  0
   -0.7516   -1.4517    0.2596 H   0  0  0  0  0  0  0  0  0  0  0  0
   -1.3773   -0.2957   -0.9709 H   0  0  0  0  0  0  0  0  0  0  0  0
   -1.9318   -0.2137    2.0800 H   0  0  0  0  0  0  0  0  0  0  0  0
   -2.3191    1.5191   -0.0597 H   0  0  0  0  0  0  0  0  0  0  0  0
   -3.0427   -1.6178    0.1109 H   0  0  0  0  0  0  0  0  0  0  0  0
  1  2  1  0
  2  3  1  0
  3  4  1  0
  3  5  1  0
  5  6  1  0
  6  7  1  0
  7  8  1  0
  7  9  1  0
  1 10  1  0
  2 11  1  0
  2 12  1  0
  3 13  1  6
  4 14  1  0
  6 15  1  0
  6 16  1  0
  7 17  1  0
  8 18  1  0
  9 19  1  0
M  END
$$$$

     RDKit          3D

 19 18  0  0  0  0  0  0  0  0999 V2000
   -3.2714    0.3475    0.1470 O   0  0  0  0  0  0  0  0  0  0  0  0
   -2.2716   -0.6118    0.0848 C   0  0  0  0  0  0  0  0  0  0  0  0
   -0.9773   -0.0193   -0.4980 C   0  0  2  0  0  0  0  0  0  0  0  0
   -1.2053    0.4614   -1.7861 O   0  0  0  0  0  0  0  0  0  0  0  0
   -0.0446   -0.9956   -0.4252 O   0  0  0  0  0  0  0  0  0  0  0  0
    1.0544   -0.8466    0.3437 C   0  0  0  0  0  0  0  0  0  0  0  0
    1.9939    0.2687    0.0047 C   0  0  0  0  0  0  0  0  0  0  0  0
    1.4324    1.5259    0.0647 O   0  0  0  0  0  0  0  0  0  0  0  0
    3.0463    0.2749    0.9529 O   0  0  0  0  0  0  0  0  0  0  0  0
   -3.2790    0.8495    0.9763 H   0  0  0  0  0  0  0  0  0  0  0  0
   -2.0218   -0.9492    1.1033 H   0  0  0  0  0  0  0  0  0  0  0  0
   -2.5308   -1.4574   -0.5808 H   0  0  0  0  0  0  0  0  0  0  0  0
   -0.7264    0.8297    0.1343 H   0  0  0  0  0  0  0  0  0  0  0  0
   -2.1741    0.4603   -1.9553 H   0  0  0  0  0  0  0  0  0  0  0  0
    0.8372   -0.8759    1.4528 H   0  0  0  0  0  0  0  0  0  0  0  0
    1.6614   -1.7953    0.2020 H   0  0  0  0  0  0  0  0  0  0  0  0
    2.4405    0.1261   -1.0014 H   0  0  0  0  0  0  0  0  0  0  0  0
    2.1166    2.1871    0.2675 H   0  0  0  0  0  0  0  0  0  0  0  0
    3.9194    0.2201    0.5128 H   0  0  0  0  0  0  0  0  0  0  0  0
  1  2  1  0
  2  3  1  0
  3  4  1  0
  3  5  1  0
  5  6  1  0
  6  7  1  0
  7  8  1  0
  7  9  1  0
  1 10  1  0
  2 11  1  0
  2 12  1  0
  3 13  1  1
  4 14  1  0
  6 15  1  0
  6 16  1  0
  7 17  1  0
  8 18  1  0
  9 19  1  0
M  END
$$$$

     RDKit          3D

 19 18  0  0  0  0  0  0  0  0999 V2000
    2.9813    0.9595    0.2983 O   0  0  0  0  0  0  0  0  0  0  0  0
    2.3368   -0.2126    0.6580 C   0  0  0  0  0  0  0  0  0  0  0  0
    1.2928   -0.6388   -0.3417 C   0  0  2  0  0  0  0  0  0  0  0  0
    1.9108   -0.8445   -1.5745 O   0  0  0  0  0  0  0  0  0  0  0  0
    0.2382    0.2235   -0.4464 O   0  0  0  0  0  0  0  0  0  0  0  0
   -0.9343   -0.4375   -0.1057 C   0  0  0  0  0  0  0  0  0  0  0  0
   -2.1504    0.4631   -0.2000 C   0  0  0  0  0  0  0  0  0  0  0  0
   -2.0016    1.5322    0.6554 O   0  0  0  0  0  0  0  0  0  0  0  0
   -3.2525   -0.3097    0.1629 O   0  0  0  0  0  0  0  0  0  0  0  0
    2.5550    1.4313   -0.4552 H   0  0  0  0  0  0  0  0  0  0  0  0
    1.8978   -0.1758    1.6747 H   0  0  0  0  0  0  0  0  0  0  0  0
    3.1167   -1.0146    0.6550 H   0  0  0  0  0  0  0  0  0  0  0  0
    0.9225   -1.6301   -0.0133 H   0  0  0  0  0  0  0  0  0  0  0  0
    1.6184   -0.1594   -2.2241 H   0  0  0  0  0  0  0  0  0  0  0  0
   -1.1432   -1.2919   -0.8145 H   0  0  0  0  0  0  0  0  0  0  0  0
   -0.9125   -0.8850    0.8944 H   0  0  0  0  0  0  0  0  0  0  0  0
   -2.2961    0.8327   -1.2361 H   0  0  0  0  0  0  0  0  0  0  0  0
   -2.5838    2.2758    0.3235 H   0  0  0  0  0  0  0  0  0  0  0  0
   -3.5959   -0.1184    1.0539 H   0  0  0  0  0  0  0  0  0  0  0  0
  1  2  1  0
  2  3  1  0
  3  4  1  0
  3  5  1  0
  5  6  1  0
  6  7  1  0
  7  8  1  0
  7  9  1  0
  1 10  1  0
  2 11  1  0
  2 12  1  0
  3 13  1  1
  4 14  1  0
  6 15  1  0
  6 16  1  0
  7 17  1  0
  8 18  1  0
  9 19  1  0
M  END
$$$$

     RDKit          3D

 19 18  0  0  0  0  0  0  0  0999 V2000
   -2.5370    1.5351    0.0730 O   0  0  0  0  0  0  0  0  0  0  0  0
   -1.9129    0.4263    0.5891 C   0  0  0  0  0  0  0  0  0  0  0  0
   -0.9655   -0.2182   -0.4151 C   0  0  2  0  0  0  0  0  0  0  0  0
   -1.7083   -0.6103   -1.5437 O   0  0  0  0  0  0  0  0  0  0  0  0
   -0.2748   -1.2656    0.1196 O   0  0  0  0  0  0  0  0  0  0  0  0
    1.0810   -1.1059    0.1241 C   0  0  0  0  0  0  0  0  0  0  0  0
    1.5910   -0.0228    1.0073 C   0  0  0  0  0  0  0  0  0  0  0  0
    1.1425    1.2262    0.6904 O   0  0  0  0  0  0  0  0  0  0  0  0
    3.0067    0.0281    0.8798 O   0  0  0  0  0  0  0  0  0  0  0  0
   -2.1508    2.3767    0.4475 H   0  0  0  0  0  0  0  0  0  0  0  0
   -1.4010    0.6825    1.5298 H   0  0  0  0  0  0  0  0  0  0  0  0
   -2.6830   -0.3439    0.8681 H   0  0  0  0  0  0  0  0  0  0  0  0
   -0.2726    0.5459   -0.7935 H   0  0  0  0  0  0  0  0  0  0  0  0
   -2.3773   -1.2959   -1.3260 H   0  0  0  0  0  0  0  0  0  0  0  0
    1.4823   -0.9362   -0.9272 H   0  0  0  0  0  0  0  0  0  0  0  0
    1.5865   -2.0880    0.4055 H   0  0  0  0  0  0  0  0  0  0  0  0
    1.4117   -0.2770    2.0959 H   0  0  0  0  0  0  0  0  0  0  0  0
    1.7299    1.7431    0.0816 H   0  0  0  0  0  0  0  0  0  0  0  0
    3.2516   -0.4002    0.0087 H   0  0  0  0  0  0  0  0  0  0  0  0
  1  2  1  0
  2  3  1  0
  3  4  1  0
  3  5  1  0
  5  6  1  0
  6  7  1  0
  7  8  1  0
  7  9  1  0
  1 10  1  0
  2 11  1  0
  2 12  1  0
  3 13  1  6
  4 14  1  0
  6 15  1  0
  6 16  1  0
  7 17  1  0
  8 18  1  0
  9 19  1  0
M  END
$$$$

     RDKit          3D

 19 18  0  0  0  0  0  0  0  0999 V2000
    3.1436    1.2442    0.1169 O   0  0  0  0  0  0  0  0  0  0  0  0
    1.8676    1.0849   -0.3960 C   0  0  0  0  0  0  0  0  0  0  0  0
    1.3232   -0.3150   -0.1843 C   0  0  2  0  0  0  0  0  0  0  0  0
    2.1469   -1.2468   -0.8107 O   0  0  0  0  0  0  0  0  0  0  0  0
    0.0424   -0.3122   -0.6986 O   0  0  0  0  0  0  0  0  0  0  0  0
   -0.9346   -0.6240    0.2171 C   0  0  0  0  0  0  0  0  0  0  0  0
   -2.2722   -0.5719   -0.5265 C   0  0  0  0  0  0  0  0  0  0  0  0
   -3.3310   -0.8739    0.3157 O   0  0  0  0  0  0  0  0  0  0  0  0
   -2.4757    0.7238   -1.0384 O   0  0  0  0  0  0  0  0  0  0  0  0
    3.5955    1.9783   -0.3780 H   0  0  0  0  0  0  0  0  0  0  0  0
    1.7931    1.3141   -1.4712 H   0  0  0  0  0  0  0  0  0  0  0  0
    1.2039    1.7810    0.1670 H   0  0  0  0  0  0  0  0  0  0  0  0
    1.3061   -0.5758    0.8964 H   0  0  0  0  0  0  0  0  0  0  0  0
    2.7075   -1.7410   -0.1568 H   0  0  0  0  0  0  0  0  0  0  0  0
   -0.9989    0.1755    0.9919 H   0  0  0  0  0  0  0  0  0  0  0  0
   -0.8338   -1.5920    0.7042 H   0  0  0  0  0  0  0  0  0  0  0  0
   -2.2213   -1.2430   -1.4009 H   0  0  0  0  0  0  0  0  0  0  0  0
   -3.1237   -0.5095    1.2051 H   0  0  0  0  0  0  0  0  0  0  0  0
   -2.9387    1.3033   -0.3582 H   0  0  0  0  0  0  0  0  0  0  0  0
  1  2  1  0
  2  3  1  0
  3  4  1  0
  3  5  1  0
  5  6  1  0
  6  7  1  0
  7  8  1  0
  7  9  1  0
  1 10  1  0
  2 11  1  0
  2 12  1  0
  3 13  1  1
  4 14  1  0
  6 15  1  0
  6 16  1  0
  7 17  1  0
  8 18  1  0
  9 19  1  0
M  END
$$$$
