
     RDKit          3D

 23 24  0  0  0  0  0  0  0  0999 V2000
    4.1059    0.0281   -0.2921 N   0  0  0  0  0  0  0  0  0  0  0  0
    2.8053   -0.4743    0.0253 C   0  0  0  0  0  0  0  0  0  0  0  0
    2.4819   -1.7272    0.5233 C   0  0  0  0  0  0  0  0  0  0  0  0
    1.1488   -1.7787    0.6733 N   0  0  0  0  0  0  0  0  0  0  0  0
    0.5771   -0.6455    0.3077 N   0  0  0  0  0  0  0  0  0  0  0  0
   -0.7680   -0.2767    0.2982 N   0  0  0  0  0  0  0  0  0  0  0  0
   -1.7229   -0.7105   -0.7064 C   0  0  0  0  0  0  0  0  0  0  0  0
   -2.3372    0.5316   -1.3053 C   0  0  0  0  0  0  0  0  0  0  0  0
   -2.4614    1.5765   -0.4418 O   0  0  0  0  0  0  0  0  0  0  0  0
   -2.5670    1.2882    0.8895 C   0  0  0  0  0  0  0  0  0  0  0  0
   -1.3039    0.5821    1.3041 C   0  0  0  0  0  0  0  0  0  0  0  0
   -0.7579    0.7152    2.4082 O   0  0  0  0  0  0  0  0  0  0  0  0
    1.5925    0.1716   -0.0962 C   0  0  0  0  0  0  0  0  0  0  0  0
    4.5412   -0.1819   -1.2177 H   0  0  0  0  0  0  0  0  0  0  0  0
    4.6614    0.6123    0.3701 H   0  0  0  0  0  0  0  0  0  0  0  0
    3.2450   -2.4720    0.7250 H   0  0  0  0  0  0  0  0  0  0  0  0
   -2.5029   -1.2980   -0.1614 H   0  0  0  0  0  0  0  0  0  0  0  0
   -1.2842   -1.3128   -1.5055 H   0  0  0  0  0  0  0  0  0  0  0  0
   -3.2756    0.3068   -1.8511 H   0  0  0  0  0  0  0  0  0  0  0  0
   -1.6150    0.8629   -2.1087 H   0  0  0  0  0  0  0  0  0  0  0  0
   -2.5397    2.2669    1.4362 H   0  0  0  0  0  0  0  0  0  0  0  0
   -3.4677    0.7557    1.1818 H   0  0  0  0  0  0  0  0  0  0  0  0
    1.4444    1.1797   -0.4565 H   0  0  0  0  0  0  0  0  0  0  0  0
  1  2  1  0
  2  3  1  0
  3  4  2  0
  4  5  1  0
  5  6  1  0
  6  7  1  0
  7  8  1  0
  8  9  1  0
  9 10  1  0
 10 11  1  0
 11 12  2  0
  5 13  1  0
 13  2  2  0
 11  6  1  0
  1 14  1  0
  1 15  1  0
  3 16  1  0
  7 17  1  0
  7 18  1  0
  8 19  1  0
  8 20  1  0
 10 21  1  0
 10 22  1  0
 13 23  1  0
M  END
$$$$

     RDKit          3D

 23 24  0  0  0  0  0  0  0  0999 V2000
    4.2556   -0.0901   -0.5109 N   0  0  0  0  0  0  0  0  0  0  0  0
    2.9349    0.2200   -0.0819 C   0  0  0  0  0  0  0  0  0  0  0  0
    2.6099    1.2330    0.7867 C   0  0  0  0  0  0  0  0  0  0  0  0
    1.2745    1.2075    0.9447 N   0  0  0  0  0  0  0  0  0  0  0  0
    0.7189    0.2427    0.2332 N   0  0  0  0  0  0  0  0  0  0  0  0
   -0.6615   -0.0566    0.1744 N   0  0  0  0  0  0  0  0  0  0  0  0
   -1.6040    1.0176    0.4161 C   0  0  0  0  0  0  0  0  0  0  0  0
   -2.9504    0.7448   -0.1806 C   0  0  0  0  0  0  0  0  0  0  0  0
   -3.3767   -0.4931    0.2535 O   0  0  0  0  0  0  0  0  0  0  0  0
   -2.6470   -1.5511   -0.2349 C   0  0  0  0  0  0  0  0  0  0  0  0
   -1.1695   -1.3351   -0.1045 C   0  0  0  0  0  0  0  0  0  0  0  0
   -0.3905   -2.3020   -0.2458 O   0  0  0  0  0  0  0  0  0  0  0  0
    1.7327   -0.3714   -0.4028 C   0  0  0  0  0  0  0  0  0  0  0  0
    5.0551   -0.0944    0.1906 H   0  0  0  0  0  0  0  0  0  0  0  0
    4.5127   -0.3205   -1.4850 H   0  0  0  0  0  0  0  0  0  0  0  0
    3.3261    1.9214    1.2518 H   0  0  0  0  0  0  0  0  0  0  0  0
   -1.6683    1.1414    1.5165 H   0  0  0  0  0  0  0  0  0  0  0  0
   -1.1420    1.9584    0.0260 H   0  0  0  0  0  0  0  0  0  0  0  0
   -2.9020    0.8514   -1.2764 H   0  0  0  0  0  0  0  0  0  0  0  0
   -3.6583    1.4987    0.2263 H   0  0  0  0  0  0  0  0  0  0  0  0
   -2.9263   -1.7469   -1.3026 H   0  0  0  0  0  0  0  0  0  0  0  0
   -2.9557   -2.4598    0.3446 H   0  0  0  0  0  0  0  0  0  0  0  0
    1.6317   -1.2159   -1.0769 H   0  0  0  0  0  0  0  0  0  0  0  0
  1  2  1  0
  2  3  1  0
  3  4  2  0
  4  5  1  0
  5  6  1  0
  6  7  1  0
  7  8  1  0
  8  9  1  0
  9 10  1  0
 10 11  1  0
 11 12  2  0
  5 13  1  0
 13  2  2  0
 11  6  1  0
  1 14  1  0
  1 15  1  0
  3 16  1  0
  7 17  1  0
  7 18  1  0
  8 19  1  0
  8 20  1  0
 10 21  1  0
 10 22  1  0
 13 23  1  0
M  END
$$$$

     RDKit          3D

 23 24  0  0  0  0  0  0  0  0999 V2000
    4.0535   -0.8797    0.8522 N   0  0  0  0  0  0  0  0  0  0  0  0
    2.8873   -0.1602    0.3980 C   0  0  0  0  0  0  0  0  0  0  0  0
    2.8511    1.0866   -0.1815 C   0  0  0  0  0  0  0  0  0  0  0  0
    1.5496    1.3726   -0.4437 N   0  0  0  0  0  0  0  0  0  0  0  0
    0.7698    0.3914   -0.0673 N   0  0  0  0  0  0  0  0  0  0  0  0
   -0.6313    0.2815   -0.1519 N   0  0  0  0  0  0  0  0  0  0  0  0
   -1.2369   -0.4957   -1.2166 C   0  0  0  0  0  0  0  0  0  0  0  0
   -2.7109   -0.2717   -1.2786 C   0  0  0  0  0  0  0  0  0  0  0  0
   -3.3860   -0.3085   -0.0978 O   0  0  0  0  0  0  0  0  0  0  0  0
   -2.8266    0.3253    0.9792 C   0  0  0  0  0  0  0  0  0  0  0  0
   -1.5042    0.8996    0.7598 C   0  0  0  0  0  0  0  0  0  0  0  0
   -1.1283    1.9291    1.3627 O   0  0  0  0  0  0  0  0  0  0  0  0
    1.5724   -0.5743    0.4589 C   0  0  0  0  0  0  0  0  0  0  0  0
    4.0064   -1.9094    0.9964 H   0  0  0  0  0  0  0  0  0  0  0  0
    4.9335   -0.3796    1.0351 H   0  0  0  0  0  0  0  0  0  0  0  0
    3.7366    1.7019   -0.3735 H   0  0  0  0  0  0  0  0  0  0  0  0
   -0.9918   -1.5667   -1.0958 H   0  0  0  0  0  0  0  0  0  0  0  0
   -0.7919   -0.1268   -2.1672 H   0  0  0  0  0  0  0  0  0  0  0  0
   -3.1347   -1.0994   -1.9198 H   0  0  0  0  0  0  0  0  0  0  0  0
   -2.9300    0.6542   -1.8858 H   0  0  0  0  0  0  0  0  0  0  0  0
   -2.7651   -0.4379    1.8086 H   0  0  0  0  0  0  0  0  0  0  0  0
   -3.5497    1.0768    1.3659 H   0  0  0  0  0  0  0  0  0  0  0  0
    1.2272   -1.5091    0.8628 H   0  0  0  0  0  0  0  0  0  0  0  0
  1  2  1  0
  2  3  1  0
  3  4  2  0
  4  5  1  0
  5  6  1  0
  6  7  1  0
  7  8  1  0
  8  9  1  0
  9 10  1  0
 10 11  1  0
 11 12  2  0
  5 13  1  0
 13  2  2  0
 11  6  1  0
  1 14  1  0
  1 15  1  0
  3 16  1  0
  7 17  1  0
  7 18  1  0
  8 19  1  0
  8 20  1  0
 10 21  1  0
 10 22  1  0
 13 23  1  0
M  END
$$$$

     RDKit          3D

 23 24  0  0  0  0  0  0  0  0999 V2000
    4.2037   -0.9531   -0.2441 N   0  0  0  0  0  0  0  0  0  0  0  0
    2.9190   -0.3427   -0.3318 C   0  0  0  0  0  0  0  0  0  0  0  0
    2.6198    0.8187   -1.0320 C   0  0  0  0  0  0  0  0  0  0  0  0
    1.3231    1.0594   -0.8698 N   0  0  0  0  0  0  0  0  0  0  0  0
    0.7423    0.1305   -0.1057 N   0  0  0  0  0  0  0  0  0  0  0  0
   -0.6266    0.1083    0.2488 N   0  0  0  0  0  0  0  0  0  0  0  0
   -1.4946   -0.9811   -0.1805 C   0  0  0  0  0  0  0  0  0  0  0  0
   -2.9398   -0.5399   -0.2361 C   0  0  0  0  0  0  0  0  0  0  0  0
   -3.3594    0.2019    0.8337 O   0  0  0  0  0  0  0  0  0  0  0  0
   -2.6488    1.3943    0.9528 C   0  0  0  0  0  0  0  0  0  0  0  0
   -1.1970    1.1377    1.0248 C   0  0  0  0  0  0  0  0  0  0  0  0
   -0.4842    1.8307    1.7700 O   0  0  0  0  0  0  0  0  0  0  0  0
    1.7160   -0.7248    0.2225 C   0  0  0  0  0  0  0  0  0  0  0  0
    5.0229   -0.3161   -0.2499 H   0  0  0  0  0  0  0  0  0  0  0  0
    4.3774   -1.9700   -0.1763 H   0  0  0  0  0  0  0  0  0  0  0  0
    3.3762    1.3698   -1.5893 H   0  0  0  0  0  0  0  0  0  0  0  0
   -1.2089   -1.2572   -1.2182 H   0  0  0  0  0  0  0  0  0  0  0  0
   -1.3991   -1.8645    0.4806 H   0  0  0  0  0  0  0  0  0  0  0  0
   -3.1474   -0.0098   -1.1974 H   0  0  0  0  0  0  0  0  0  0  0  0
   -3.5566   -1.4851   -0.2366 H   0  0  0  0  0  0  0  0  0  0  0  0
   -2.9683    1.9097    1.8754 H   0  0  0  0  0  0  0  0  0  0  0  0
   -2.8559    2.0908    0.1040 H   0  0  0  0  0  0  0  0  0  0  0  0
    1.5861   -1.6075    0.8450 H   0  0  0  0  0  0  0  0  0  0  0  0
  1  2  1  0
  2  3  1  0
  3  4  2  0
  4  5  1  0
  5  6  1  0
  6  7  1  0
  7  8  1  0
  8  9  1  0
  9 10  1  0
 10 11  1  0
 11 12  2  0
  5 13  1  0
 13  2  2  0
 11  6  1  0
  1 14  1  0
  1 15  1  0
  3 16  1  0
  7 17  1  0
  7 18  1  0
  8 19  1  0
  8 20  1  0
 10 21  1  0
 10 22  1  0
 13 23  1  0
M  END
$$$$

     RDKit          3D

 23 24  0  0  0  0  0  0  0  0999 V2000
    4.2105   -0.2510    0.1896 N   0  0  0  0  0  0  0  0  0  0  0  0
    2.8717   -0.2976   -0.2874 C   0  0  0  0  0  0  0  0  0  0  0  0
    2.4528   -0.8055   -1.5183 C   0  0  0  0  0  0  0  0  0  0  0  0
    1.1170   -0.6604   -1.5729 N   0  0  0  0  0  0  0  0  0  0  0  0
    0.7037   -0.0925   -0.4428 N   0  0  0  0  0  0  0  0  0  0  0  0
   -0.6618    0.1852   -0.2129 N   0  0  0  0  0  0  0  0  0  0  0  0
   -1.7164   -0.5810   -0.8599 C   0  0  0  0  0  0  0  0  0  0  0  0
   -2.9377   -0.6158    0.0259 C   0  0  0  0  0  0  0  0  0  0  0  0
   -2.6975   -0.2609    1.3308 O   0  0  0  0  0  0  0  0  0  0  0  0
   -2.3415    1.1043    1.4304 C   0  0  0  0  0  0  0  0  0  0  0  0
   -1.0705    1.2320    0.6681 C   0  0  0  0  0  0  0  0  0  0  0  0
   -0.3076    2.2484    0.7603 O   0  0  0  0  0  0  0  0  0  0  0  0
    1.7457    0.1383    0.3543 C   0  0  0  0  0  0  0  0  0  0  0  0
    4.6010   -0.9691    0.8324 H   0  0  0  0  0  0  0  0  0  0  0  0
    4.8365    0.5255   -0.1063 H   0  0  0  0  0  0  0  0  0  0  0  0
    3.1164   -1.2288   -2.2599 H   0  0  0  0  0  0  0  0  0  0  0  0
   -1.3396   -1.6013   -1.0648 H   0  0  0  0  0  0  0  0  0  0  0  0
   -2.0255   -0.0876   -1.8263 H   0  0  0  0  0  0  0  0  0  0  0  0
   -3.7437    0.0419   -0.3735 H   0  0  0  0  0  0  0  0  0  0  0  0
   -3.3327   -1.6406    0.0132 H   0  0  0  0  0  0  0  0  0  0  0  0
   -3.1318    1.7708    1.0895 H   0  0  0  0  0  0  0  0  0  0  0  0
   -2.0638    1.2623    2.5088 H   0  0  0  0  0  0  0  0  0  0  0  0
    1.7148    0.5834    1.3219 H   0  0  0  0  0  0  0  0  0  0  0  0
  1  2  1  0
  2  3  1  0
  3  4  2  0
  4  5  1  0
  5  6  1  0
  6  7  1  0
  7  8  1  0
  8  9  1  0
  9 10  1  0
 10 11  1  0
 11 12  2  0
  5 13  1  0
 13  2  2  0
 11  6  1  0
  1 14  1  0
  1 15  1  0
  3 16  1  0
  7 17  1  0
  7 18  1  0
  8 19  1  0
  8 20  1  0
 10 21  1  0
 10 22  1  0
 13 23  1  0
M  END
$$$$

     RDKit          3D

 23 24  0  0  0  0  0  0  0  0999 V2000
    4.1140    0.4616    0.0068 N   0  0  0  0  0  0  0  0  0  0  0  0
    2.8245   -0.0391   -0.3142 C   0  0  0  0  0  0  0  0  0  0  0  0
    2.5791   -1.0678   -1.1942 C   0  0  0  0  0  0  0  0  0  0  0  0
    1.2520   -1.2635   -1.2437 N   0  0  0  0  0  0  0  0  0  0  0  0
    0.6729   -0.3889   -0.4231 N   0  0  0  0  0  0  0  0  0  0  0  0
   -0.6927   -0.2532   -0.1784 N   0  0  0  0  0  0  0  0  0  0  0  0
   -1.4889    0.6782   -0.9460 C   0  0  0  0  0  0  0  0  0  0  0  0
   -2.6290    1.1120   -0.0182 C   0  0  0  0  0  0  0  0  0  0  0  0
   -3.3490   -0.0220    0.3278 O   0  0  0  0  0  0  0  0  0  0  0  0
   -2.6926   -0.7398    1.3295 C   0  0  0  0  0  0  0  0  0  0  0  0
   -1.2959   -1.0359    0.8308 C   0  0  0  0  0  0  0  0  0  0  0  0
   -0.6203   -1.9922    1.2982 O   0  0  0  0  0  0  0  0  0  0  0  0
    1.6034    0.3801    0.1661 C   0  0  0  0  0  0  0  0  0  0  0  0
    4.9304   -0.1480    0.1988 H   0  0  0  0  0  0  0  0  0  0  0  0
    4.2575    1.4884    0.0545 H   0  0  0  0  0  0  0  0  0  0  0  0
    3.3463   -1.6243   -1.7531 H   0  0  0  0  0  0  0  0  0  0  0  0
   -2.0048    0.1135   -1.7758 H   0  0  0  0  0  0  0  0  0  0  0  0
   -0.9217    1.5351   -1.3332 H   0  0  0  0  0  0  0  0  0  0  0  0
   -2.2391    1.6119    0.8919 H   0  0  0  0  0  0  0  0  0  0  0  0
   -3.3116    1.7876   -0.5664 H   0  0  0  0  0  0  0  0  0  0  0  0
   -3.2112   -1.6853    1.5202 H   0  0  0  0  0  0  0  0  0  0  0  0
   -2.5702   -0.0993    2.2297 H   0  0  0  0  0  0  0  0  0  0  0  0
    1.4471    1.1908    0.8920 H   0  0  0  0  0  0  0  0  0  0  0  0
  1  2  1  0
  2  3  1  0
  3  4  2  0
  4  5  1  0
  5  6  1  0
  6  7  1  0
  7  8  1  0
  8  9  1  0
  9 10  1  0
 10 11  1  0
 11 12  2  0
  5 13  1  0
 13  2  2  0
 11  6  1  0
  1 14  1  0
  1 15  1  0
  3 16  1  0
  7 17  1  0
  7 18  1  0
  8 19  1  0
  8 20  1  0
 10 21  1  0
 10 22  1  0
 13 23  1  0
M  END
$$$$

     RDKit          3D

 23 24  0  0  0  0  0  0  0  0999 V2000
   -4.0320   -0.1948    1.0745 N   0  0  0  0  0  0  0  0  0  0  0  0
   -2.8686   -0.2795    0.2783 C   0  0  0  0  0  0  0  0  0  0  0  0
   -2.7850   -0.6291   -1.0720 C   0  0  0  0  0  0  0  0  0  0  0  0
   -1.4917   -0.5858   -1.4428 N   0  0  0  0  0  0  0  0  0  0  0  0
   -0.7220   -0.2261   -0.4055 N   0  0  0  0  0  0  0  0  0  0  0  0
    0.6687   -0.0867   -0.4424 N   0  0  0  0  0  0  0  0  0  0  0  0
    1.3255    1.2072   -0.5010 C   0  0  0  0  0  0  0  0  0  0  0  0
    2.3481    1.2645    0.6039 C   0  0  0  0  0  0  0  0  0  0  0  0
    3.1984    0.2120    0.6444 O   0  0  0  0  0  0  0  0  0  0  0  0
    3.0021   -0.8224   -0.2277 C   0  0  0  0  0  0  0  0  0  0  0  0
    1.5719   -1.1861   -0.4293 C   0  0  0  0  0  0  0  0  0  0  0  0
    1.1490   -2.3590   -0.5826 O   0  0  0  0  0  0  0  0  0  0  0  0
   -1.5577   -0.0403    0.6424 C   0  0  0  0  0  0  0  0  0  0  0  0
   -4.6966    0.5743    0.9489 H   0  0  0  0  0  0  0  0  0  0  0  0
   -4.2150   -0.9175    1.7869 H   0  0  0  0  0  0  0  0  0  0  0  0
   -3.6725   -0.8771   -1.6549 H   0  0  0  0  0  0  0  0  0  0  0  0
    0.6076    2.0206   -0.3530 H   0  0  0  0  0  0  0  0  0  0  0  0
    1.7913    1.3338   -1.4915 H   0  0  0  0  0  0  0  0  0  0  0  0
    1.7790    1.3613    1.5693 H   0  0  0  0  0  0  0  0  0  0  0  0
    2.8817    2.2464    0.4616 H   0  0  0  0  0  0  0  0  0  0  0  0
    3.4857   -0.5334   -1.2037 H   0  0  0  0  0  0  0  0  0  0  0  0
    3.4827   -1.7402    0.1637 H   0  0  0  0  0  0  0  0  0  0  0  0
   -1.2505    0.2579    1.6326 H   0  0  0  0  0  0  0  0  0  0  0  0
  1  2  1  0
  2  3  1  0
  3  4  2  0
  4  5  1  0
  5  6  1  0
  6  7  1  0
  7  8  1  0
  8  9  1  0
  9 10  1  0
 10 11  1  0
 11 12  2  0
  5 13  1  0
 13  2  2  0
 11  6  1  0
  1 14  1  0
  1 15  1  0
  3 16  1  0
  7 17  1  0
  7 18  1  0
  8 19  1  0
  8 20  1  0
 10 21  1  0
 10 22  1  0
 13 23  1  0
M  END
$$$$

     RDKit          3D

 23 24  0  0  0  0  0  0  0  0999 V2000
    4.1991   -0.2271   -0.1152 N   0  0  0  0  0  0  0  0  0  0  0  0
    2.8833    0.2580   -0.3275 C   0  0  0  0  0  0  0  0  0  0  0  0
    2.4786    1.4034   -0.9983 C   0  0  0  0  0  0  0  0  0  0  0  0
    1.1436    1.4575   -0.9487 N   0  0  0  0  0  0  0  0  0  0  0  0
    0.6737    0.4061   -0.2813 N   0  0  0  0  0  0  0  0  0  0  0  0
   -0.6539    0.1333   -0.0350 N   0  0  0  0  0  0  0  0  0  0  0  0
   -1.3300   -1.0992   -0.4141 C   0  0  0  0  0  0  0  0  0  0  0  0
   -2.4863   -1.3927    0.5080 C   0  0  0  0  0  0  0  0  0  0  0  0
   -3.3789   -0.3825    0.6524 O   0  0  0  0  0  0  0  0  0  0  0  0
   -2.9408    0.8875    0.4870 C   0  0  0  0  0  0  0  0  0  0  0  0
   -1.4850    1.0898    0.6417 C   0  0  0  0  0  0  0  0  0  0  0  0
   -0.9873    2.0313    1.3172 O   0  0  0  0  0  0  0  0  0  0  0  0
    1.7066   -0.3566    0.1184 C   0  0  0  0  0  0  0  0  0  0  0  0
    4.9917    0.4545   -0.0467 H   0  0  0  0  0  0  0  0  0  0  0  0
    4.3492   -1.2547   -0.0327 H   0  0  0  0  0  0  0  0  0  0  0  0
    3.1913    2.0826   -1.4541 H   0  0  0  0  0  0  0  0  0  0  0  0
   -0.5907   -1.9180   -0.2746 H   0  0  0  0  0  0  0  0  0  0  0  0
   -1.6597   -1.0975   -1.4683 H   0  0  0  0  0  0  0  0  0  0  0  0
   -3.0229   -2.2761    0.0852 H   0  0  0  0  0  0  0  0  0  0  0  0
   -2.0632   -1.7601    1.4879 H   0  0  0  0  0  0  0  0  0  0  0  0
   -3.1948    1.2088   -0.5610 H   0  0  0  0  0  0  0  0  0  0  0  0
   -3.4636    1.6361    1.1373 H   0  0  0  0  0  0  0  0  0  0  0  0
    1.6399   -1.2845    0.6855 H   0  0  0  0  0  0  0  0  0  0  0  0
  1  2  1  0
  2  3  1  0
  3  4  2  0
  4  5  1  0
  5  6  1  0
  6  7  1  0
  7  8  1  0
  8  9  1  0
  9 10  1  0
 10 11  1  0
 11 12  2  0
  5 13  1  0
 13  2  2  0
 11  6  1  0
  1 14  1  0
  1 15  1  0
  3 16  1  0
  7 17  1  0
  7 18  1  0
  8 19  1  0
  8 20  1  0
 10 21  1  0
 10 22  1  0
 13 23  1  0
M  END
$$$$
