
     RDKit          3D

 25 25  0  0  0  0  0  0  0  0999 V2000
    2.8535    0.0368   -0.5065 N   0  0  0  0  0  0  0  0  0  0  0  0
    1.4343   -0.1947   -0.7981 C   0  0  1  0  0  0  0  0  0  0  0  0
    0.9282   -1.2780    0.0761 C   0  0  1  0  0  0  0  0  0  0  0  0
    1.7132   -1.3059    1.2517 O   0  0  0  0  0  0  0  0  0  0  0  0
   -0.3967   -1.2903    0.3442 O   0  0  0  0  0  0  0  0  0  0  0  0
   -1.0468   -0.1117    0.4459 C   0  0  2  0  0  0  0  0  0  0  0  0
   -2.5483   -0.4014    0.4383 C   0  0  0  0  0  0  0  0  0  0  0  0
   -2.9176   -1.0462   -0.7518 O   0  0  0  0  0  0  0  0  0  0  0  0
   -0.7835    0.8505   -0.6877 C   0  0  1  0  0  0  0  0  0  0  0  0
   -1.4036    2.0636   -0.3907 O   0  0  0  0  0  0  0  0  0  0  0  0
    0.7077    1.0988   -0.7154 C   0  0  1  0  0  0  0  0  0  0  0  0
    1.0242    1.8666    0.3869 O   0  0  0  0  0  0  0  0  0  0  0  0
    3.1369   -0.3211    0.4098 H   0  0  0  0  0  0  0  0  0  0  0  0
    3.1057    1.0406   -0.6626 H   0  0  0  0  0  0  0  0  0  0  0  0
    1.4155   -0.5193   -1.8792 H   0  0  0  0  0  0  0  0  0  0  0  0
    1.1687   -2.2594   -0.4344 H   0  0  0  0  0  0  0  0  0  0  0  0
    2.0007   -2.2022    1.4902 H   0  0  0  0  0  0  0  0  0  0  0  0
   -0.8616    0.4599    1.3894 H   0  0  0  0  0  0  0  0  0  0  0  0
   -3.1373    0.5351    0.4733 H   0  0  0  0  0  0  0  0  0  0  0  0
   -2.8530   -1.0358    1.2781 H   0  0  0  0  0  0  0  0  0  0  0  0
   -3.4386   -1.8605   -0.5608 H   0  0  0  0  0  0  0  0  0  0  0  0
   -1.1742    0.5048   -1.6508 H   0  0  0  0  0  0  0  0  0  0  0  0
   -1.6590    2.1538    0.5499 H   0  0  0  0  0  0  0  0  0  0  0  0
    0.9679    1.6999   -1.6165 H   0  0  0  0  0  0  0  0  0  0  0  0
    1.7638    1.5164    0.9244 H   0  0  0  0  0  0  0  0  0  0  0  0
  1  2  1  0
  2  3  1  0
  3  4  1  0
  3  5  1  0
  5  6  1  0
  6  7  1  0
  7  8  1  0
  6  9  1  0
  9 10  1  0
  9 11  1  0
 11 12  1  0
 11  2  1  0
  1 13  1  0
  1 14  1  0
  2 15  1  6
  3 16  1  6
  4 17  1  0
  6 18  1  1
  7 19  1  0
  7 20  1  0
  8 21  1  0
  9 22  1  6
 10 23  1  0
 11 24  1  6
 12 25  1  0
M  END
$$$$

     RDKit          3D

 25 25  0  0  0  0  0  0  0  0999 V2000
   -2.8050    0.4352   -0.4041 N   0  0  0  0  0  0  0  0  0  0  0  0
   -1.6586   -0.3580   -0.0987 C   0  0  1  0  0  0  0  0  0  0  0  0
   -0.6438   -0.4138   -1.2223 C   0  0  1  0  0  0  0  0  0  0  0  0
   -1.2385   -0.3972   -2.4693 O   0  0  0  0  0  0  0  0  0  0  0  0
    0.3123    0.5834   -1.1273 O   0  0  0  0  0  0  0  0  0  0  0  0
    1.0895    0.4877   -0.0028 C   0  0  2  0  0  0  0  0  0  0  0  0
    2.5345    0.1627   -0.2790 C   0  0  0  0  0  0  0  0  0  0  0  0
    2.7026   -1.0383   -0.9333 O   0  0  0  0  0  0  0  0  0  0  0  0
    0.4842   -0.4404    1.0409 C   0  0  1  0  0  0  0  0  0  0  0  0
    1.1776   -0.2546    2.2346 O   0  0  0  0  0  0  0  0  0  0  0  0
   -0.9756    0.0095    1.1874 C   0  0  1  0  0  0  0  0  0  0  0  0
   -0.9355    1.3771    1.4158 O   0  0  0  0  0  0  0  0  0  0  0  0
   -2.6203    1.4229   -0.6000 H   0  0  0  0  0  0  0  0  0  0  0  0
   -3.5416    0.2405    0.2916 H   0  0  0  0  0  0  0  0  0  0  0  0
   -2.0205   -1.4193    0.0295 H   0  0  0  0  0  0  0  0  0  0  0  0
   -0.0811   -1.3908   -1.1581 H   0  0  0  0  0  0  0  0  0  0  0  0
   -1.3720   -1.3286   -2.8333 H   0  0  0  0  0  0  0  0  0  0  0  0
    1.0906    1.5075    0.4827 H   0  0  0  0  0  0  0  0  0  0  0  0
    2.9467    1.0176   -0.8653 H   0  0  0  0  0  0  0  0  0  0  0  0
    3.0648    0.1729    0.6988 H   0  0  0  0  0  0  0  0  0  0  0  0
    3.5513   -0.9600   -1.4633 H   0  0  0  0  0  0  0  0  0  0  0  0
    0.5623   -1.4942    0.7755 H   0  0  0  0  0  0  0  0  0  0  0  0
    0.8810    0.6157    2.5991 H   0  0  0  0  0  0  0  0  0  0  0  0
   -1.4420   -0.4569    2.0812 H   0  0  0  0  0  0  0  0  0  0  0  0
   -1.0627    1.9195    0.6197 H   0  0  0  0  0  0  0  0  0  0  0  0
  1  2  1  0
  2  3  1  0
  3  4  1  0
  3  5  1  0
  5  6  1  0
  6  7  1  0
  7  8  1  0
  6  9  1  0
  9 10  1  0
  9 11  1  0
 11 12  1  0
 11  2  1  0
  1 13  1  0
  1 14  1  0
  2 15  1  1
  3 16  1  1
  4 17  1  0
  6 18  1  1
  7 19  1  0
  7 20  1  0
  8 21  1  0
  9 22  1  6
 10 23  1  0
 11 24  1  1
 12 25  1  0
M  END
$$$$

     RDKit          3D

 25 25  0  0  0  0  0  0  0  0999 V2000
   -1.9368   -1.0130   -0.2195 N   0  0  0  0  0  0  0  0  0  0  0  0
   -1.4929    0.2058    0.4708 C   0  0  1  0  0  0  0  0  0  0  0  0
   -0.3920   -0.1376    1.4805 C   0  0  1  0  0  0  0  0  0  0  0  0
   -0.8874   -0.4884    2.7042 O   0  0  0  0  0  0  0  0  0  0  0  0
    0.4023   -1.0798    0.8850 O   0  0  0  0  0  0  0  0  0  0  0  0
    1.1217   -0.5911   -0.1703 C   0  0  2  0  0  0  0  0  0  0  0  0
    2.3857    0.1408    0.3004 C   0  0  0  0  0  0  0  0  0  0  0  0
    3.2028   -0.7372    1.0175 O   0  0  0  0  0  0  0  0  0  0  0  0
    0.3630    0.2249   -1.1494 C   0  0  1  0  0  0  0  0  0  0  0  0
   -0.1100   -0.5483   -2.2081 O   0  0  0  0  0  0  0  0  0  0  0  0
   -0.7665    1.0163   -0.6028 C   0  0  1  0  0  0  0  0  0  0  0  0
   -1.7043    1.2656   -1.6312 O   0  0  0  0  0  0  0  0  0  0  0  0
   -2.5556   -1.5916    0.3537 H   0  0  0  0  0  0  0  0  0  0  0  0
   -2.4095   -0.6635   -1.1026 H   0  0  0  0  0  0  0  0  0  0  0  0
   -2.3150    0.7560    0.9243 H   0  0  0  0  0  0  0  0  0  0  0  0
    0.1875    0.8156    1.6139 H   0  0  0  0  0  0  0  0  0  0  0  0
   -1.3866    0.2827    3.0693 H   0  0  0  0  0  0  0  0  0  0  0  0
    1.5193   -1.4901   -0.7301 H   0  0  0  0  0  0  0  0  0  0  0  0
    2.8967    0.5169   -0.6066 H   0  0  0  0  0  0  0  0  0  0  0  0
    2.1291    1.0024    0.9517 H   0  0  0  0  0  0  0  0  0  0  0  0
    2.8064   -1.6462    1.0679 H   0  0  0  0  0  0  0  0  0  0  0  0
    1.0887    0.9538   -1.6164 H   0  0  0  0  0  0  0  0  0  0  0  0
    0.4366   -1.3722   -2.3151 H   0  0  0  0  0  0  0  0  0  0  0  0
   -0.4709    2.0077   -0.2254 H   0  0  0  0  0  0  0  0  0  0  0  0
   -2.1123    2.1706   -1.5228 H   0  0  0  0  0  0  0  0  0  0  0  0
  1  2  1  0
  2  3  1  0
  3  4  1  0
  3  5  1  0
  5  6  1  0
  6  7  1  0
  7  8  1  0
  6  9  1  0
  9 10  1  0
  9 11  1  0
 11 12  1  0
 11  2  1  0
  1 13  1  0
  1 14  1  0
  2 15  1  1
  3 16  1  1
  4 17  1  0
  6 18  1  6
  7 19  1  0
  7 20  1  0
  8 21  1  0
  9 22  1  6
 10 23  1  0
 11 24  1  1
 12 25  1  0
M  END
$$$$

     RDKit          3D

 25 25  0  0  0  0  0  0  0  0999 V2000
    1.6467   -0.1440    1.2481 N   0  0  0  0  0  0  0  0  0  0  0  0
    1.5829   -0.0024   -0.1736 C   0  0  1  0  0  0  0  0  0  0  0  0
    0.8655   -1.1784   -0.8025 C   0  0  1  0  0  0  0  0  0  0  0  0
    1.2254   -2.3819   -0.1922 O   0  0  0  0  0  0  0  0  0  0  0  0
   -0.5035   -0.9949   -0.8598 O   0  0  0  0  0  0  0  0  0  0  0  0
   -0.9979   -0.1997    0.1646 C   0  0  2  0  0  0  0  0  0  0  0  0
   -2.5187   -0.3086    0.1014 C   0  0  0  0  0  0  0  0  0  0  0  0
   -2.8206   -1.6676    0.2844 O   0  0  0  0  0  0  0  0  0  0  0  0
   -0.5615    1.2352   -0.1111 C   0  0  1  0  0  0  0  0  0  0  0  0
   -0.7607    2.0635    0.9671 O   0  0  0  0  0  0  0  0  0  0  0  0
    0.8505    1.2471   -0.6193 C   0  0  1  0  0  0  0  0  0  0  0  0
    1.5395    2.4038   -0.3336 O   0  0  0  0  0  0  0  0  0  0  0  0
    1.6379   -1.1404    1.5361 H   0  0  0  0  0  0  0  0  0  0  0  0
    2.3720    0.4213    1.7071 H   0  0  0  0  0  0  0  0  0  0  0  0
    2.6186    0.0511   -0.5792 H   0  0  0  0  0  0  0  0  0  0  0  0
    1.2236   -1.2159   -1.8677 H   0  0  0  0  0  0  0  0  0  0  0  0
    0.5780   -2.6295    0.5057 H   0  0  0  0  0  0  0  0  0  0  0  0
   -0.7013   -0.5397    1.1715 H   0  0  0  0  0  0  0  0  0  0  0  0
   -2.9625    0.2166    0.9713 H   0  0  0  0  0  0  0  0  0  0  0  0
   -2.9256    0.0912   -0.8383 H   0  0  0  0  0  0  0  0  0  0  0  0
   -2.7643   -2.1630   -0.5850 H   0  0  0  0  0  0  0  0  0  0  0  0
   -1.2607    1.5948   -0.9235 H   0  0  0  0  0  0  0  0  0  0  0  0
   -0.5448    1.6873    1.8356 H   0  0  0  0  0  0  0  0  0  0  0  0
    0.7974    1.1768   -1.7442 H   0  0  0  0  0  0  0  0  0  0  0  0
    2.3839    2.3774   -0.8629 H   0  0  0  0  0  0  0  0  0  0  0  0
  1  2  1  0
  2  3  1  0
  3  4  1  0
  3  5  1  0
  5  6  1  0
  6  7  1  0
  7  8  1  0
  6  9  1  0
  9 10  1  0
  9 11  1  0
 11 12  1  0
 11  2  1  0
  1 13  1  0
  1 14  1  0
  2 15  1  6
  3 16  1  6
  4 17  1  0
  6 18  1  1
  7 19  1  0
  7 20  1  0
  8 21  1  0
  9 22  1  6
 10 23  1  0
 11 24  1  6
 12 25  1  0
M  END
$$$$

     RDKit          3D

 25 25  0  0  0  0  0  0  0  0999 V2000
    3.0000    0.1419    0.7848 N   0  0  0  0  0  0  0  0  0  0  0  0
    1.5774   -0.0216    1.0323 C   0  0  1  0  0  0  0  0  0  0  0  0
    0.8652    1.2757    0.8040 C   0  0  1  0  0  0  0  0  0  0  0  0
    0.9243    1.6716   -0.5309 O   0  0  0  0  0  0  0  0  0  0  0  0
   -0.5022    1.0835    1.0937 O   0  0  0  0  0  0  0  0  0  0  0  0
   -1.0265    0.2833    0.0784 C   0  0  2  0  0  0  0  0  0  0  0  0
   -2.5335    0.2821    0.1975 C   0  0  0  0  0  0  0  0  0  0  0  0
   -3.0179    1.5826    0.0708 O   0  0  0  0  0  0  0  0  0  0  0  0
   -0.4955   -1.1153    0.3062 C   0  0  1  0  0  0  0  0  0  0  0  0
   -1.0943   -2.0596   -0.5024 O   0  0  0  0  0  0  0  0  0  0  0  0
    1.0030   -1.1365    0.2161 C   0  0  1  0  0  0  0  0  0  0  0  0
    1.4704   -1.0972   -1.0883 O   0  0  0  0  0  0  0  0  0  0  0  0
    3.2463    1.1488    0.7593 H   0  0  0  0  0  0  0  0  0  0  0  0
    3.2850   -0.2797   -0.1215 H   0  0  0  0  0  0  0  0  0  0  0  0
    1.4815   -0.2716    2.1147 H   0  0  0  0  0  0  0  0  0  0  0  0
    1.2527    2.0576    1.4562 H   0  0  0  0  0  0  0  0  0  0  0  0
    1.6992    1.3401   -1.0097 H   0  0  0  0  0  0  0  0  0  0  0  0
   -0.7088    0.6206   -0.9146 H   0  0  0  0  0  0  0  0  0  0  0  0
   -2.9646   -0.3414   -0.6320 H   0  0  0  0  0  0  0  0  0  0  0  0
   -2.8462   -0.1610    1.1547 H   0  0  0  0  0  0  0  0  0  0  0  0
   -4.0129    1.5548    0.1252 H   0  0  0  0  0  0  0  0  0  0  0  0
   -0.7501   -1.3686    1.3768 H   0  0  0  0  0  0  0  0  0  0  0  0
   -1.9793   -2.2855   -0.1016 H   0  0  0  0  0  0  0  0  0  0  0  0
    1.3359   -2.1103    0.6683 H   0  0  0  0  0  0  0  0  0  0  0  0
    0.7910   -0.7946   -1.7409 H   0  0  0  0  0  0  0  0  0  0  0  0
  1  2  1  0
  2  3  1  0
  3  4  1  0
  3  5  1  0
  5  6  1  0
  6  7  1  0
  7  8  1  0
  6  9  1  0
  9 10  1  0
  9 11  1  0
 11 12  1  0
 11  2  1  0
  1 13  1  0
  1 14  1  0
  2 15  1  1
  3 16  1  1
  4 17  1  0
  6 18  1  6
  7 19  1  0
  7 20  1  0
  8 21  1  0
  9 22  1  1
 10 23  1  0
 11 24  1  1
 12 25  1  0
M  END
$$$$

     RDKit          3D

 25 25  0  0  0  0  0  0  0  0999 V2000
   -1.6875    0.6012    1.1833 N   0  0  0  0  0  0  0  0  0  0  0  0
   -1.6762    0.1756   -0.1757 C   0  0  1  0  0  0  0  0  0  0  0  0
   -0.9192    1.1550   -1.0250 C   0  0  1  0  0  0  0  0  0  0  0  0
   -0.9531    2.4192   -0.4007 O   0  0  0  0  0  0  0  0  0  0  0  0
    0.4002    0.8147   -1.2311 O   0  0  0  0  0  0  0  0  0  0  0  0
    0.9313    0.2215   -0.0988 C   0  0  2  0  0  0  0  0  0  0  0  0
    2.4467    0.1166   -0.2037 C   0  0  0  0  0  0  0  0  0  0  0  0
    3.0361    1.3533   -0.3411 O   0  0  0  0  0  0  0  0  0  0  0  0
    0.3647   -1.1857   -0.0183 C   0  0  1  0  0  0  0  0  0  0  0  0
    0.5813   -1.6404    1.2804 O   0  0  0  0  0  0  0  0  0  0  0  0
   -1.1021   -1.1990   -0.3753 C   0  0  1  0  0  0  0  0  0  0  0  0
   -1.7592   -2.1199    0.4365 O   0  0  0  0  0  0  0  0  0  0  0  0
   -1.3366   -0.0675    1.8708 H   0  0  0  0  0  0  0  0  0  0  0  0
   -2.4505    1.2137    1.4668 H   0  0  0  0  0  0  0  0  0  0  0  0
   -2.7407    0.1346   -0.5252 H   0  0  0  0  0  0  0  0  0  0  0  0
   -1.4430    1.2326   -2.0134 H   0  0  0  0  0  0  0  0  0  0  0  0
   -1.0100    3.1297   -1.0900 H   0  0  0  0  0  0  0  0  0  0  0  0
    0.6485    0.8173    0.7685 H   0  0  0  0  0  0  0  0  0  0  0  0
    2.7573   -0.5087   -1.0478 H   0  0  0  0  0  0  0  0  0  0  0  0
    2.8443   -0.3517    0.7197 H   0  0  0  0  0  0  0  0  0  0  0  0
    3.2356    1.7780    0.5313 H   0  0  0  0  0  0  0  0  0  0  0  0
    0.9481   -1.8060   -0.7348 H   0  0  0  0  0  0  0  0  0  0  0  0
    1.3255   -2.2825    1.3039 H   0  0  0  0  0  0  0  0  0  0  0  0
   -1.2763   -1.5062   -1.4235 H   0  0  0  0  0  0  0  0  0  0  0  0
   -1.1654   -2.4954    1.1432 H   0  0  0  0  0  0  0  0  0  0  0  0
  1  2  1  0
  2  3  1  0
  3  4  1  0
  3  5  1  0
  5  6  1  0
  6  7  1  0
  7  8  1  0
  6  9  1  0
  9 10  1  0
  9 11  1  0
 11 12  1  0
 11  2  1  0
  1 13  1  0
  1 14  1  0
  2 15  1  6
  3 16  1  6
  4 17  1  0
  6 18  1  1
  7 19  1  0
  7 20  1  0
  8 21  1  0
  9 22  1  6
 10 23  1  0
 11 24  1  6
 12 25  1  0
M  END
$$$$

     RDKit          3D

 25 25  0  0  0  0  0  0  0  0999 V2000
   -2.7012    0.3769   -0.7671 N   0  0  0  0  0  0  0  0  0  0  0  0
   -1.2893    0.1811   -0.5615 C   0  0  1  0  0  0  0  0  0  0  0  0
   -0.6088    1.3896    0.0141 C   0  0  1  0  0  0  0  0  0  0  0  0
   -1.4965    1.9106    0.9878 O   0  0  0  0  0  0  0  0  0  0  0  0
    0.5695    1.1532    0.6317 O   0  0  0  0  0  0  0  0  0  0  0  0
    1.2434    0.0178    0.3546 C   0  0  2  0  0  0  0  0  0  0  0  0
    2.1137    0.1117   -0.9049 C   0  0  0  0  0  0  0  0  0  0  0  0
    3.0737    1.1384   -0.7519 O   0  0  0  0  0  0  0  0  0  0  0  0
    0.4400   -1.2395    0.2909 C   0  0  1  0  0  0  0  0  0  0  0  0
    0.8489   -2.2062    1.2062 O   0  0  0  0  0  0  0  0  0  0  0  0
   -1.0457   -0.9332    0.4632 C   0  0  1  0  0  0  0  0  0  0  0  0
   -1.2742   -0.3882    1.7267 O   0  0  0  0  0  0  0  0  0  0  0  0
   -3.1013   -0.5667   -1.0125 H   0  0  0  0  0  0  0  0  0  0  0  0
   -2.7930    0.9330   -1.6696 H   0  0  0  0  0  0  0  0  0  0  0  0
   -0.8394   -0.0627   -1.5323 H   0  0  0  0  0  0  0  0  0  0  0  0
   -0.5735    2.1877   -0.7773 H   0  0  0  0  0  0  0  0  0  0  0  0
   -1.4950    2.8807    1.0059 H   0  0  0  0  0  0  0  0  0  0  0  0
    1.9941   -0.1368    1.1881 H   0  0  0  0  0  0  0  0  0  0  0  0
    2.6961   -0.8286   -0.9929 H   0  0  0  0  0  0  0  0  0  0  0  0
    1.5253    0.2398   -1.8099 H   0  0  0  0  0  0  0  0  0  0  0  0
    3.3926    1.1982    0.1662 H   0  0  0  0  0  0  0  0  0  0  0  0
    0.5219   -1.7036   -0.7283 H   0  0  0  0  0  0  0  0  0  0  0  0
    1.2613   -2.9919    0.7632 H   0  0  0  0  0  0  0  0  0  0  0  0
   -1.6714   -1.8022    0.2633 H   0  0  0  0  0  0  0  0  0  0  0  0
   -0.7913   -0.8592    2.4463 H   0  0  0  0  0  0  0  0  0  0  0  0
  1  2  1  0
  2  3  1  0
  3  4  1  0
  3  5  1  0
  5  6  1  0
  6  7  1  0
  7  8  1  0
  6  9  1  0
  9 10  1  0
  9 11  1  0
 11 12  1  0
 11  2  1  0
  1 13  1  0
  1 14  1  0
  2 15  1  6
  3 16  1  6
  4 17  1  0
  6 18  1  1
  7 19  1  0
  7 20  1  0
  8 21  1  0
  9 22  1  6
 10 23  1  0
 11 24  1  6
 12 25  1  0
M  END
$$$$

     RDKit          3D

 25 25  0  0  0  0  0  0  0  0999 V2000
    2.8770   -0.2047   -0.4534 N   0  0  0  0  0  0  0  0  0  0  0  0
    1.4582   -0.2268   -0.5024 C   0  0  1  0  0  0  0  0  0  0  0  0
    0.8584   -1.2039    0.4727 C   0  0  1  0  0  0  0  0  0  0  0  0
    1.4193   -0.9901    1.7531 O   0  0  0  0  0  0  0  0  0  0  0  0
   -0.4763   -1.2113    0.5507 O   0  0  0  0  0  0  0  0  0  0  0  0
   -1.1879   -0.0834    0.4311 C   0  0  2  0  0  0  0  0  0  0  0  0
   -2.5077   -0.4294   -0.2766 C   0  0  0  0  0  0  0  0  0  0  0  0
   -2.1132   -0.9559   -1.5283 O   0  0  0  0  0  0  0  0  0  0  0  0
   -0.5766    1.0272   -0.3628 C   0  0  1  0  0  0  0  0  0  0  0  0
   -1.2627    2.2066   -0.2063 O   0  0  0  0  0  0  0  0  0  0  0  0
    0.9069    1.1505   -0.1111 C   0  0  1  0  0  0  0  0  0  0  0  0
    1.1966    1.3821    1.2168 O   0  0  0  0  0  0  0  0  0  0  0  0
    3.3124   -1.0741   -0.0752 H   0  0  0  0  0  0  0  0  0  0  0  0
    3.2539   -0.0290   -1.4302 H   0  0  0  0  0  0  0  0  0  0  0  0
    1.0420   -0.4953   -1.5136 H   0  0  0  0  0  0  0  0  0  0  0  0
    1.2161   -2.2164    0.1681 H   0  0  0  0  0  0  0  0  0  0  0  0
    1.1559   -1.7885    2.2839 H   0  0  0  0  0  0  0  0  0  0  0  0
   -1.5006    0.3288    1.4237 H   0  0  0  0  0  0  0  0  0  0  0  0
   -2.9871   -1.2457    0.2816 H   0  0  0  0  0  0  0  0  0  0  0  0
   -3.1149    0.4715   -0.3838 H   0  0  0  0  0  0  0  0  0  0  0  0
   -2.7525   -1.6170   -1.8671 H   0  0  0  0  0  0  0  0  0  0  0  0
   -0.6776    0.7387   -1.4501 H   0  0  0  0  0  0  0  0  0  0  0  0
   -1.4409    2.4696    0.7215 H   0  0  0  0  0  0  0  0  0  0  0  0
    1.3086    1.9320   -0.7716 H   0  0  0  0  0  0  0  0  0  0  0  0
    0.5928    2.0646    1.6295 H   0  0  0  0  0  0  0  0  0  0  0  0
  1  2  1  0
  2  3  1  0
  3  4  1  0
  3  5  1  0
  5  6  1  0
  6  7  1  0
  7  8  1  0
  6  9  1  0
  9 10  1  0
  9 11  1  0
 11 12  1  0
 11  2  1  0
  1 13  1  0
  1 14  1  0
  2 15  1  6
  3 16  1  6
  4 17  1  0
  6 18  1  1
  7 19  1  0
  7 20  1  0
  8 21  1  0
  9 22  1  6
 10 23  1  0
 11 24  1  6
 12 25  1  0
M  END
$$$$
