
     RDKit          3D

 27 27  0  0  0  0  0  0  0  0999 V2000
   -3.4728    0.3846   -0.9543 C   0  0  0  0  0  0  0  0  0  0  0  0
   -2.5832   -0.4194   -0.0374 C   0  0  2  0  0  0  0  0  0  0  0  0
   -2.7302    0.1098    1.3907 C   0  0  0  0  0  0  0  0  0  0  0  0
   -2.3478    1.4380    1.3777 O   0  0  0  0  0  0  0  0  0  0  0  0
   -1.1644   -0.3624   -0.4297 C   0  0  0  0  0  0  0  0  0  0  0  0
   -0.8211    0.3013   -1.4199 O   0  0  0  0  0  0  0  0  0  0  0  0
   -0.2135   -1.0760    0.3433 N   0  0  0  0  0  0  0  0  0  0  0  0
    1.2010   -1.0760    0.0307 C   0  0  0  0  0  0  0  0  0  0  0  0
    1.7732    0.3349    0.0721 C   0  0  0  0  0  0  0  0  0  0  0  0
    3.1879    0.3023   -0.2445 N   0  0  0  0  0  0  0  0  0  0  0  0
    4.2091    0.1621    0.6021 N   0  0  0  0  0  0  0  0  0  0  0  0
    5.3533    0.1824   -0.0845 C   0  0  0  0  0  0  0  0  0  0  0  0
    5.0505    0.3379   -1.3843 N   0  0  0  0  0  0  0  0  0  0  0  0
    3.7297    0.4072   -1.4471 N   0  0  0  0  0  0  0  0  0  0  0  0
   -3.7459    1.3275   -0.4372 H   0  0  0  0  0  0  0  0  0  0  0  0
   -2.9760    0.6484   -1.9080 H   0  0  0  0  0  0  0  0  0  0  0  0
   -4.4354   -0.1432   -1.1770 H   0  0  0  0  0  0  0  0  0  0  0  0
   -2.9944   -1.4543   -0.0161 H   0  0  0  0  0  0  0  0  0  0  0  0
   -2.0400   -0.4805    2.0236 H   0  0  0  0  0  0  0  0  0  0  0  0
   -3.7829   -0.0279    1.7261 H   0  0  0  0  0  0  0  0  0  0  0  0
   -3.0954    2.0296    1.6424 H   0  0  0  0  0  0  0  0  0  0  0  0
   -0.5789   -1.6104    1.1600 H   0  0  0  0  0  0  0  0  0  0  0  0
    1.4323   -1.5388   -0.9320 H   0  0  0  0  0  0  0  0  0  0  0  0
    1.7337   -1.6462    0.8105 H   0  0  0  0  0  0  0  0  0  0  0  0
    1.2592    1.0051   -0.6202 H   0  0  0  0  0  0  0  0  0  0  0  0
    1.6902    0.7700    1.0889 H   0  0  0  0  0  0  0  0  0  0  0  0
    6.3617    0.0940    0.2910 H   0  0  0  0  0  0  0  0  0  0  0  0
  1  2  1  0
  2  3  1  0
  3  4  1  0
  2  5  1  0
  5  6  2  0
  5  7  1  0
  7  8  1  0
  8  9  1  0
  9 10  1  0
 10 11  1  0
 11 12  2  0
 12 13  1  0
 13 14  2  0
 14 10  1  0
  1 15  1  0
  1 16  1  0
  1 17  1  0
  2 18  1  1
  3 19  1  0
  3 20  1  0
  4 21  1  0
  7 22  1  0
  8 23  1  0
  8 24  1  0
  9 25  1  0
  9 26  1  0
 12 27  1  0
M  END
$$$$

     RDKit          3D

 27 27  0  0  0  0  0  0  0  0999 V2000
   -1.7443    2.0210   -0.5199 C   0  0  0  0  0  0  0  0  0  0  0  0
   -2.2222    0.6158   -0.5006 C   0  0  2  0  0  0  0  0  0  0  0  0
   -2.6654    0.2445    0.9250 C   0  0  0  0  0  0  0  0  0  0  0  0
   -3.0949   -1.0894    0.8349 O   0  0  0  0  0  0  0  0  0  0  0  0
   -1.2913   -0.3993   -0.9397 C   0  0  0  0  0  0  0  0  0  0  0  0
   -1.5920   -1.1189   -1.9287 O   0  0  0  0  0  0  0  0  0  0  0  0
   -0.0295   -0.6751   -0.3472 N   0  0  0  0  0  0  0  0  0  0  0  0
    0.8361   -1.7132   -0.8573 C   0  0  0  0  0  0  0  0  0  0  0  0
    2.1023   -1.7558   -0.0101 C   0  0  0  0  0  0  0  0  0  0  0  0
    2.7544   -0.4675   -0.0998 N   0  0  0  0  0  0  0  0  0  0  0  0
    2.5100    0.5355    0.7307 N   0  0  0  0  0  0  0  0  0  0  0  0
    3.2812    1.5610    0.3575 C   0  0  0  0  0  0  0  0  0  0  0  0
    3.9879    1.1538   -0.7067 N   0  0  0  0  0  0  0  0  0  0  0  0
    3.6616   -0.0893   -0.9828 N   0  0  0  0  0  0  0  0  0  0  0  0
   -2.0899    2.5358    0.4007 H   0  0  0  0  0  0  0  0  0  0  0  0
   -0.6563    2.1535   -0.5705 H   0  0  0  0  0  0  0  0  0  0  0  0
   -2.1875    2.5888   -1.3790 H   0  0  0  0  0  0  0  0  0  0  0  0
   -3.1492    0.5569   -1.1042 H   0  0  0  0  0  0  0  0  0  0  0  0
   -3.5456    0.9026    1.1488 H   0  0  0  0  0  0  0  0  0  0  0  0
   -1.8449    0.3667    1.6468 H   0  0  0  0  0  0  0  0  0  0  0  0
   -2.6870   -1.6420    1.5383 H   0  0  0  0  0  0  0  0  0  0  0  0
    0.2271   -0.0847    0.4712 H   0  0  0  0  0  0  0  0  0  0  0  0
    1.1042   -1.5629   -1.9232 H   0  0  0  0  0  0  0  0  0  0  0  0
    0.3701   -2.7207   -0.7856 H   0  0  0  0  0  0  0  0  0  0  0  0
    2.8039   -2.5267   -0.3878 H   0  0  0  0  0  0  0  0  0  0  0  0
    1.8138   -1.9480    1.0443 H   0  0  0  0  0  0  0  0  0  0  0  0
    3.3474    2.5576    0.8127 H   0  0  0  0  0  0  0  0  0  0  0  0
  1  2  1  0
  2  3  1  0
  3  4  1  0
  2  5  1  0
  5  6  2  0
  5  7  1  0
  7  8  1  0
  8  9  1  0
  9 10  1  0
 10 11  1  0
 11 12  2  0
 12 13  1  0
 13 14  2  0
 14 10  1  0
  1 15  1  0
  1 16  1  0
  1 17  1  0
  2 18  1  6
  3 19  1  0
  3 20  1  0
  4 21  1  0
  7 22  1  0
  8 23  1  0
  8 24  1  0
  9 25  1  0
  9 26  1  0
 12 27  1  0
M  END
$$$$

     RDKit          3D

 27 27  0  0  0  0  0  0  0  0999 V2000
   -2.0824    0.0191   -1.4945 C   0  0  0  0  0  0  0  0  0  0  0  0
   -2.3255   -0.6152   -0.1204 C   0  0  2  0  0  0  0  0  0  0  0  0
   -2.8904    0.4131    0.8327 C   0  0  0  0  0  0  0  0  0  0  0  0
   -2.0574    1.4892    1.0213 O   0  0  0  0  0  0  0  0  0  0  0  0
   -1.1177   -1.2722    0.3834 C   0  0  0  0  0  0  0  0  0  0  0  0
   -1.1343   -2.5200    0.6360 O   0  0  0  0  0  0  0  0  0  0  0  0
    0.1069   -0.6095    0.6198 N   0  0  0  0  0  0  0  0  0  0  0  0
    1.2928   -1.2693    1.1175 C   0  0  0  0  0  0  0  0  0  0  0  0
    2.4331   -0.2846    1.2617 C   0  0  0  0  0  0  0  0  0  0  0  0
    2.7700    0.3305   -0.0054 N   0  0  0  0  0  0  0  0  0  0  0  0
    2.2518    1.4556   -0.5084 N   0  0  0  0  0  0  0  0  0  0  0  0
    2.8255    1.6743   -1.6850 C   0  0  0  0  0  0  0  0  0  0  0  0
    3.6988    0.7063   -1.9363 N   0  0  0  0  0  0  0  0  0  0  0  0
    3.6563   -0.1180   -0.8923 N   0  0  0  0  0  0  0  0  0  0  0  0
   -2.8586    0.7972   -1.6317 H   0  0  0  0  0  0  0  0  0  0  0  0
   -2.2072   -0.7875   -2.2613 H   0  0  0  0  0  0  0  0  0  0  0  0
   -1.0502    0.4089   -1.5571 H   0  0  0  0  0  0  0  0  0  0  0  0
   -3.1241   -1.3667   -0.2848 H   0  0  0  0  0  0  0  0  0  0  0  0
   -3.8289    0.7955    0.3635 H   0  0  0  0  0  0  0  0  0  0  0  0
   -3.1797   -0.1009    1.7529 H   0  0  0  0  0  0  0  0  0  0  0  0
   -2.2475    2.1743    0.3586 H   0  0  0  0  0  0  0  0  0  0  0  0
    0.1532    0.3971    0.4260 H   0  0  0  0  0  0  0  0  0  0  0  0
    1.1406   -1.8575    2.0177 H   0  0  0  0  0  0  0  0  0  0  0  0
    1.6097   -1.9959    0.3159 H   0  0  0  0  0  0  0  0  0  0  0  0
    2.1923    0.4732    2.0364 H   0  0  0  0  0  0  0  0  0  0  0  0
    3.3358   -0.8386    1.5971 H   0  0  0  0  0  0  0  0  0  0  0  0
    2.6371    2.5016   -2.3632 H   0  0  0  0  0  0  0  0  0  0  0  0
  1  2  1  0
  2  3  1  0
  3  4  1  0
  2  5  1  0
  5  6  2  0
  5  7  1  0
  7  8  1  0
  8  9  1  0
  9 10  1  0
 10 11  1  0
 11 12  2  0
 12 13  1  0
 13 14  2  0
 14 10  1  0
  1 15  1  0
  1 16  1  0
  1 17  1  0
  2 18  1  6
  3 19  1  0
  3 20  1  0
  4 21  1  0
  7 22  1  0
  8 23  1  0
  8 24  1  0
  9 25  1  0
  9 26  1  0
 12 27  1  0
M  END
$$$$

     RDKit          3D

 27 27  0  0  0  0  0  0  0  0999 V2000
   -2.5322    0.9201    1.0521 C   0  0  0  0  0  0  0  0  0  0  0  0
   -1.9365    0.9920   -0.3336 C   0  0  2  0  0  0  0  0  0  0  0  0
   -3.0747    1.0520   -1.3277 C   0  0  0  0  0  0  0  0  0  0  0  0
   -3.8971   -0.0637   -1.2474 O   0  0  0  0  0  0  0  0  0  0  0  0
   -1.0304   -0.1393   -0.6287 C   0  0  0  0  0  0  0  0  0  0  0  0
   -1.3275   -0.8851   -1.6031 O   0  0  0  0  0  0  0  0  0  0  0  0
    0.1402   -0.4037    0.1383 N   0  0  0  0  0  0  0  0  0  0  0  0
    0.9351   -1.5244   -0.2435 C   0  0  0  0  0  0  0  0  0  0  0  0
    2.1496   -1.7442    0.6045 C   0  0  0  0  0  0  0  0  0  0  0  0
    3.0676   -0.6519    0.6085 N   0  0  0  0  0  0  0  0  0  0  0  0
    3.1477    0.4083    1.3984 N   0  0  0  0  0  0  0  0  0  0  0  0
    4.1748    1.1767    1.0296 C   0  0  0  0  0  0  0  0  0  0  0  0
    4.7422    0.5713   -0.0171 N   0  0  0  0  0  0  0  0  0  0  0  0
    4.0640   -0.5200   -0.2515 N   0  0  0  0  0  0  0  0  0  0  0  0
   -3.6129    0.6349    1.0344 H   0  0  0  0  0  0  0  0  0  0  0  0
   -2.4223    1.8746    1.6154 H   0  0  0  0  0  0  0  0  0  0  0  0
   -2.0005    0.1242    1.6487 H   0  0  0  0  0  0  0  0  0  0  0  0
   -1.4010    1.9695   -0.3926 H   0  0  0  0  0  0  0  0  0  0  0  0
   -3.6194    2.0024   -1.2785 H   0  0  0  0  0  0  0  0  0  0  0  0
   -2.6198    1.0192   -2.3597 H   0  0  0  0  0  0  0  0  0  0  0  0
   -3.8697   -0.6364   -2.0523 H   0  0  0  0  0  0  0  0  0  0  0  0
    0.3378    0.2454    0.9333 H   0  0  0  0  0  0  0  0  0  0  0  0
    0.2916   -2.4407   -0.1235 H   0  0  0  0  0  0  0  0  0  0  0  0
    1.2236   -1.4204   -1.2916 H   0  0  0  0  0  0  0  0  0  0  0  0
    2.6686   -2.6419    0.2091 H   0  0  0  0  0  0  0  0  0  0  0  0
    1.8562   -2.0306    1.6569 H   0  0  0  0  0  0  0  0  0  0  0  0
    4.5451    2.1114    1.4349 H   0  0  0  0  0  0  0  0  0  0  0  0
  1  2  1  0
  2  3  1  0
  3  4  1  0
  2  5  1  0
  5  6  2  0
  5  7  1  0
  7  8  1  0
  8  9  1  0
  9 10  1  0
 10 11  1  0
 11 12  2  0
 12 13  1  0
 13 14  2  0
 14 10  1  0
  1 15  1  0
  1 16  1  0
  1 17  1  0
  2 18  1  1
  3 19  1  0
  3 20  1  0
  4 21  1  0
  7 22  1  0
  8 23  1  0
  8 24  1  0
  9 25  1  0
  9 26  1  0
 12 27  1  0
M  END
$$$$

     RDKit          3D

 27 27  0  0  0  0  0  0  0  0999 V2000
   -2.9955   -1.6536    0.0652 C   0  0  0  0  0  0  0  0  0  0  0  0
   -2.4149   -0.2932    0.2830 C   0  0  2  0  0  0  0  0  0  0  0  0
   -3.0978    0.7514   -0.5611 C   0  0  0  0  0  0  0  0  0  0  0  0
   -4.4524    0.7862   -0.2249 O   0  0  0  0  0  0  0  0  0  0  0  0
   -0.9617   -0.2732   -0.1185 C   0  0  0  0  0  0  0  0  0  0  0  0
   -0.4587   -1.3253   -0.5538 O   0  0  0  0  0  0  0  0  0  0  0  0
   -0.2270    0.9073    0.0059 N   0  0  0  0  0  0  0  0  0  0  0  0
    1.1521    0.9763   -0.3538 C   0  0  0  0  0  0  0  0  0  0  0  0
    1.9251    0.0431    0.5075 C   0  0  0  0  0  0  0  0  0  0  0  0
    3.3399    0.0391    0.2347 N   0  0  0  0  0  0  0  0  0  0  0  0
    3.8934   -0.7690   -0.6475 N   0  0  0  0  0  0  0  0  0  0  0  0
    5.2027   -0.5492   -0.6852 C   0  0  0  0  0  0  0  0  0  0  0  0
    5.4765    0.4160    0.1910 N   0  0  0  0  0  0  0  0  0  0  0  0
    4.3135    0.7640    0.7467 N   0  0  0  0  0  0  0  0  0  0  0  0
   -2.6409   -2.3603    0.8302 H   0  0  0  0  0  0  0  0  0  0  0  0
   -2.6387   -2.0186   -0.9280 H   0  0  0  0  0  0  0  0  0  0  0  0
   -4.0858   -1.6386    0.0495 H   0  0  0  0  0  0  0  0  0  0  0  0
   -2.4520   -0.0378    1.3549 H   0  0  0  0  0  0  0  0  0  0  0  0
   -2.9419    0.5079   -1.6281 H   0  0  0  0  0  0  0  0  0  0  0  0
   -2.6142    1.7317   -0.3504 H   0  0  0  0  0  0  0  0  0  0  0  0
   -4.5512    1.2332    0.6501 H   0  0  0  0  0  0  0  0  0  0  0  0
   -0.6976    1.7591    0.3706 H   0  0  0  0  0  0  0  0  0  0  0  0
    1.2103    0.7199   -1.4379 H   0  0  0  0  0  0  0  0  0  0  0  0
    1.5365    2.0354   -0.2304 H   0  0  0  0  0  0  0  0  0  0  0  0
    1.5575   -0.9822    0.3694 H   0  0  0  0  0  0  0  0  0  0  0  0
    1.7454    0.3339    1.5665 H   0  0  0  0  0  0  0  0  0  0  0  0
    5.8774   -1.1033   -1.3463 H   0  0  0  0  0  0  0  0  0  0  0  0
  1  2  1  0
  2  3  1  0
  3  4  1  0
  2  5  1  0
  5  6  2  0
  5  7  1  0
  7  8  1  0
  8  9  1  0
  9 10  1  0
 10 11  1  0
 11 12  2  0
 12 13  1  0
 13 14  2  0
 14 10  1  0
  1 15  1  0
  1 16  1  0
  1 17  1  0
  2 18  1  1
  3 19  1  0
  3 20  1  0
  4 21  1  0
  7 22  1  0
  8 23  1  0
  8 24  1  0
  9 25  1  0
  9 26  1  0
 12 27  1  0
M  END
$$$$

     RDKit          3D

 27 27  0  0  0  0  0  0  0  0999 V2000
   -2.8938   -1.3074   -0.5177 C   0  0  0  0  0  0  0  0  0  0  0  0
   -2.5820   -0.2170    0.4697 C   0  0  2  0  0  0  0  0  0  0  0  0
   -3.6618    0.8696    0.4014 C   0  0  0  0  0  0  0  0  0  0  0  0
   -3.7427    1.4390   -0.8515 O   0  0  0  0  0  0  0  0  0  0  0  0
   -1.2592    0.4266    0.2080 C   0  0  0  0  0  0  0  0  0  0  0  0
   -1.1393    1.6540   -0.0457 O   0  0  0  0  0  0  0  0  0  0  0  0
   -0.0592   -0.3474    0.2377 N   0  0  0  0  0  0  0  0  0  0  0  0
    1.2425    0.2407   -0.0110 C   0  0  0  0  0  0  0  0  0  0  0  0
    2.2783   -0.8550    0.0988 C   0  0  0  0  0  0  0  0  0  0  0  0
    3.5829   -0.2424   -0.1552 N   0  0  0  0  0  0  0  0  0  0  0  0
    4.3257    0.2708    0.8286 N   0  0  0  0  0  0  0  0  0  0  0  0
    5.4378    0.7384    0.2362 C   0  0  0  0  0  0  0  0  0  0  0  0
    5.3655    0.5111   -1.0775 N   0  0  0  0  0  0  0  0  0  0  0  0
    4.2215   -0.0894   -1.2888 N   0  0  0  0  0  0  0  0  0  0  0  0
   -3.6179   -1.9910   -0.0512 H   0  0  0  0  0  0  0  0  0  0  0  0
   -3.3072   -0.9280   -1.4592 H   0  0  0  0  0  0  0  0  0  0  0  0
   -1.9455   -1.8914   -0.6736 H   0  0  0  0  0  0  0  0  0  0  0  0
   -2.6478   -0.6520    1.4823 H   0  0  0  0  0  0  0  0  0  0  0  0
   -4.6391    0.4036    0.6555 H   0  0  0  0  0  0  0  0  0  0  0  0
   -3.4600    1.6694    1.1352 H   0  0  0  0  0  0  0  0  0  0  0  0
   -4.6638    1.6827   -1.1152 H   0  0  0  0  0  0  0  0  0  0  0  0
   -0.1700   -1.3624    0.4488 H   0  0  0  0  0  0  0  0  0  0  0  0
    1.2408    0.7402   -0.9767 H   0  0  0  0  0  0  0  0  0  0  0  0
    1.4963    0.9924    0.7681 H   0  0  0  0  0  0  0  0  0  0  0  0
    2.0832   -1.6785   -0.6200 H   0  0  0  0  0  0  0  0  0  0  0  0
    2.2705   -1.2945    1.1000 H   0  0  0  0  0  0  0  0  0  0  0  0
    6.2442    1.2182    0.7731 H   0  0  0  0  0  0  0  0  0  0  0  0
  1  2  1  0
  2  3  1  0
  3  4  1  0
  2  5  1  0
  5  6  2  0
  5  7  1  0
  7  8  1  0
  8  9  1  0
  9 10  1  0
 10 11  1  0
 11 12  2  0
 12 13  1  0
 13 14  2  0
 14 10  1  0
  1 15  1  0
  1 16  1  0
  1 17  1  0
  2 18  1  1
  3 19  1  0
  3 20  1  0
  4 21  1  0
  7 22  1  0
  8 23  1  0
  8 24  1  0
  9 25  1  0
  9 26  1  0
 12 27  1  0
M  END
$$$$

     RDKit          3D

 27 27  0  0  0  0  0  0  0  0999 V2000
   -2.0670   -0.2209   -0.7817 C   0  0  0  0  0  0  0  0  0  0  0  0
   -1.9147   -1.1108    0.4557 C   0  0  2  0  0  0  0  0  0  0  0  0
   -2.9530   -0.6898    1.4342 C   0  0  0  0  0  0  0  0  0  0  0  0
   -2.7199    0.6655    1.7418 O   0  0  0  0  0  0  0  0  0  0  0  0
   -0.5245   -0.9568    0.9961 C   0  0  0  0  0  0  0  0  0  0  0  0
   -0.3474   -0.5387    2.1589 O   0  0  0  0  0  0  0  0  0  0  0  0
    0.6162   -1.2782    0.2102 N   0  0  0  0  0  0  0  0  0  0  0  0
    1.9713   -1.1479    0.6826 C   0  0  0  0  0  0  0  0  0  0  0  0
    2.3140    0.2699    1.0732 C   0  0  0  0  0  0  0  0  0  0  0  0
    2.1650    1.1608   -0.0594 N   0  0  0  0  0  0  0  0  0  0  0  0
    3.1490    1.4281   -0.9084 N   0  0  0  0  0  0  0  0  0  0  0  0
    2.6850    2.2938   -1.8508 C   0  0  0  0  0  0  0  0  0  0  0  0
    1.4121    2.5102   -1.5136 N   0  0  0  0  0  0  0  0  0  0  0  0
    1.0919    1.8349   -0.4407 N   0  0  0  0  0  0  0  0  0  0  0  0
   -3.1327    0.0022   -0.9134 H   0  0  0  0  0  0  0  0  0  0  0  0
   -1.4686    0.6932   -0.5622 H   0  0  0  0  0  0  0  0  0  0  0  0
   -1.5886   -0.7024   -1.6541 H   0  0  0  0  0  0  0  0  0  0  0  0
   -2.0140   -2.1744    0.1582 H   0  0  0  0  0  0  0  0  0  0  0  0
   -3.9360   -0.7225    0.9208 H   0  0  0  0  0  0  0  0  0  0  0  0
   -3.0184   -1.3025    2.3415 H   0  0  0  0  0  0  0  0  0  0  0  0
   -3.3148    1.2572    1.2331 H   0  0  0  0  0  0  0  0  0  0  0  0
    0.3931   -1.6285   -0.7705 H   0  0  0  0  0  0  0  0  0  0  0  0
    2.6473   -1.4127   -0.1627 H   0  0  0  0  0  0  0  0  0  0  0  0
    2.2241   -1.8464    1.5017 H   0  0  0  0  0  0  0  0  0  0  0  0
    1.6989    0.6355    1.9175 H   0  0  0  0  0  0  0  0  0  0  0  0
    3.3718    0.2953    1.4010 H   0  0  0  0  0  0  0  0  0  0  0  0
    3.2600    2.6859   -2.6663 H   0  0  0  0  0  0  0  0  0  0  0  0
  1  2  1  0
  2  3  1  0
  3  4  1  0
  2  5  1  0
  5  6  2  0
  5  7  1  0
  7  8  1  0
  8  9  1  0
  9 10  1  0
 10 11  1  0
 11 12  2  0
 12 13  1  0
 13 14  2  0
 14 10  1  0
  1 15  1  0
  1 16  1  0
  1 17  1  0
  2 18  1  6
  3 19  1  0
  3 20  1  0
  4 21  1  0
  7 22  1  0
  8 23  1  0
  8 24  1  0
  9 25  1  0
  9 26  1  0
 12 27  1  0
M  END
$$$$

     RDKit          3D

 27 27  0  0  0  0  0  0  0  0999 V2000
   -3.3515    1.2364   -1.3977 C   0  0  0  0  0  0  0  0  0  0  0  0
   -2.5833    0.2128   -0.6340 C   0  0  2  0  0  0  0  0  0  0  0  0
   -2.8981    0.2212    0.8461 C   0  0  0  0  0  0  0  0  0  0  0  0
   -4.2359   -0.0323    1.1069 O   0  0  0  0  0  0  0  0  0  0  0  0
   -1.1359    0.4844   -0.7750 C   0  0  0  0  0  0  0  0  0  0  0  0
   -0.7654    1.4617   -1.4630 O   0  0  0  0  0  0  0  0  0  0  0  0
   -0.1504   -0.3394   -0.1465 N   0  0  0  0  0  0  0  0  0  0  0  0
    1.2672   -0.0870   -0.2747 C   0  0  0  0  0  0  0  0  0  0  0  0
    2.0056   -1.1437    0.5117 C   0  0  0  0  0  0  0  0  0  0  0  0
    3.4284   -0.8634    0.3637 N   0  0  0  0  0  0  0  0  0  0  0  0
    4.1074   -0.0686    1.2008 N   0  0  0  0  0  0  0  0  0  0  0  0
    5.3985   -0.0102    0.7972 C   0  0  0  0  0  0  0  0  0  0  0  0
    5.4542   -0.7961   -0.3029 N   0  0  0  0  0  0  0  0  0  0  0  0
    4.2687   -1.3048   -0.5572 N   0  0  0  0  0  0  0  0  0  0  0  0
   -3.6154    0.8100   -2.4087 H   0  0  0  0  0  0  0  0  0  0  0  0
   -2.7526    2.1557   -1.6240 H   0  0  0  0  0  0  0  0  0  0  0  0
   -4.3014    1.5460   -0.9332 H   0  0  0  0  0  0  0  0  0  0  0  0
   -2.8121   -0.8222   -0.9900 H   0  0  0  0  0  0  0  0  0  0  0  0
   -2.2257   -0.4931    1.3381 H   0  0  0  0  0  0  0  0  0  0  0  0
   -2.6723    1.2388    1.2334 H   0  0  0  0  0  0  0  0  0  0  0  0
   -4.7633   -0.2764    0.3268 H   0  0  0  0  0  0  0  0  0  0  0  0
   -0.5257   -1.1397    0.4142 H   0  0  0  0  0  0  0  0  0  0  0  0
    1.5468    0.9060    0.1420 H   0  0  0  0  0  0  0  0  0  0  0  0
    1.6272   -0.1358   -1.3189 H   0  0  0  0  0  0  0  0  0  0  0  0
    1.8226   -2.1361    0.0567 H   0  0  0  0  0  0  0  0  0  0  0  0
    1.6818   -1.1733    1.5564 H   0  0  0  0  0  0  0  0  0  0  0  0
    6.1804    0.5491    1.2724 H   0  0  0  0  0  0  0  0  0  0  0  0
  1  2  1  0
  2  3  1  0
  3  4  1  0
  2  5  1  0
  5  6  2  0
  5  7  1  0
  7  8  1  0
  8  9  1  0
  9 10  1  0
 10 11  1  0
 11 12  2  0
 12 13  1  0
 13 14  2  0
 14 10  1  0
  1 15  1  0
  1 16  1  0
  1 17  1  0
  2 18  1  6
  3 19  1  0
  3 20  1  0
  4 21  1  0
  7 22  1  0
  8 23  1  0
  8 24  1  0
  9 25  1  0
  9 26  1  0
 12 27  1  0
M  END
$$$$
