
     RDKit          3D

 27 27  0  0  0  0  0  0  0  0999 V2000
    1.1260   -0.1239   -1.4678 C   0  0  0  0  0  0  0  0  0  0  0  0
    0.7855   -0.5669   -0.0459 C   0  0  1  0  0  0  0  0  0  0  0  0
    1.0499   -1.9392   -0.0515 O   0  0  0  0  0  0  0  0  0  0  0  0
    1.7426    0.0652    0.9090 C   0  0  0  0  0  0  0  0  0  0  0  0
    1.5920    1.4840    1.0456 N   0  0  0  0  0  0  0  0  0  0  0  0
   -0.6675   -0.3572    0.2674 C   0  0  1  0  0  0  0  0  0  0  0  0
   -0.9736   -0.8562    1.6315 C   0  0  0  0  0  0  0  0  0  0  0  0
   -1.8434   -1.7421    1.8478 O   0  0  0  0  0  0  0  0  0  0  0  0
   -0.2717   -0.3192    2.6988 O   0  0  0  0  0  0  0  0  0  0  0  0
   -1.0713    1.0733    0.2554 C   0  0  0  0  0  0  0  0  0  0  0  0
   -1.8502    1.3255   -0.7685 C   0  0  0  0  0  0  0  0  0  0  0  0
   -2.0508    0.0851   -1.5534 C   0  0  0  0  0  0  0  0  0  0  0  0
   -1.5267   -0.9919   -0.7220 N   0  0  0  0  0  0  0  0  0  0  0  0
    0.6968    0.8466   -1.7162 H   0  0  0  0  0  0  0  0  0  0  0  0
    2.2306   -0.0040   -1.4842 H   0  0  0  0  0  0  0  0  0  0  0  0
    0.8890   -0.9299   -2.1898 H   0  0  0  0  0  0  0  0  0  0  0  0
    0.8896   -2.3200   -0.9323 H   0  0  0  0  0  0  0  0  0  0  0  0
    1.8280   -0.4978    1.8325 H   0  0  0  0  0  0  0  0  0  0  0  0
    2.7620   -0.0574    0.4120 H   0  0  0  0  0  0  0  0  0  0  0  0
    1.4871    2.0057    0.1842 H   0  0  0  0  0  0  0  0  0  0  0  0
    2.1222    1.9071    1.8013 H   0  0  0  0  0  0  0  0  0  0  0  0
   -0.3219   -0.6983    3.6383 H   0  0  0  0  0  0  0  0  0  0  0  0
   -0.7643    1.8048    0.9911 H   0  0  0  0  0  0  0  0  0  0  0  0
   -2.2772    2.2866   -1.0014 H   0  0  0  0  0  0  0  0  0  0  0  0
   -1.4729    0.1852   -2.4953 H   0  0  0  0  0  0  0  0  0  0  0  0
   -3.1308   -0.0508   -1.7650 H   0  0  0  0  0  0  0  0  0  0  0  0
   -0.9791   -1.6140   -1.3215 H   0  0  0  0  0  0  0  0  0  0  0  0
  1  2  1  0
  2  3  1  6
  2  4  1  0
  4  5  1  0
  2  6  1  0
  6  7  1  1
  7  8  2  0
  7  9  1  0
  6 10  1  0
 10 11  2  0
 11 12  1  0
 12 13  1  0
 13  6  1  0
  1 14  1  0
  1 15  1  0
  1 16  1  0
  3 17  1  0
  4 18  1  0
  4 19  1  0
  5 20  1  0
  5 21  1  0
  9 22  1  0
 10 23  1  0
 11 24  1  0
 12 25  1  0
 12 26  1  0
 13 27  1  0
M  END
$$$$

     RDKit          3D

 27 27  0  0  0  0  0  0  0  0999 V2000
    0.9056   -1.2926    0.7622 C   0  0  0  0  0  0  0  0  0  0  0  0
    0.5914    0.1547    0.3916 C   0  0  1  0  0  0  0  0  0  0  0  0
    0.4948    0.8569    1.5909 O   0  0  0  0  0  0  0  0  0  0  0  0
    1.7470    0.6429   -0.4078 C   0  0  0  0  0  0  0  0  0  0  0  0
    2.9519    0.4064    0.4146 N   0  0  0  0  0  0  0  0  0  0  0  0
   -0.7311    0.2533   -0.3213 C   0  0  1  0  0  0  0  0  0  0  0  0
   -1.0900    1.6472   -0.6069 C   0  0  0  0  0  0  0  0  0  0  0  0
   -2.1439    2.1303   -0.1439 O   0  0  0  0  0  0  0  0  0  0  0  0
   -0.2796    2.4407   -1.3847 O   0  0  0  0  0  0  0  0  0  0  0  0
   -0.7298   -0.5547   -1.5730 C   0  0  0  0  0  0  0  0  0  0  0  0
   -1.7750   -1.3744   -1.5611 C   0  0  0  0  0  0  0  0  0  0  0  0
   -2.5566   -1.1978   -0.3306 C   0  0  0  0  0  0  0  0  0  0  0  0
   -1.7906   -0.3242    0.4790 N   0  0  0  0  0  0  0  0  0  0  0  0
    1.5590   -1.3254    1.6572 H   0  0  0  0  0  0  0  0  0  0  0  0
    1.4914   -1.7689   -0.0702 H   0  0  0  0  0  0  0  0  0  0  0  0
    0.0050   -1.9056    0.8817 H   0  0  0  0  0  0  0  0  0  0  0  0
    1.0698    1.6676    1.5297 H   0  0  0  0  0  0  0  0  0  0  0  0
    1.8380    0.1076   -1.3745 H   0  0  0  0  0  0  0  0  0  0  0  0
    1.7495    1.7309   -0.6341 H   0  0  0  0  0  0  0  0  0  0  0  0
    3.0821   -0.6242    0.4925 H   0  0  0  0  0  0  0  0  0  0  0  0
    3.7723    0.9039    0.0055 H   0  0  0  0  0  0  0  0  0  0  0  0
   -0.2641    3.4659   -1.3159 H   0  0  0  0  0  0  0  0  0  0  0  0
    0.0077   -0.4766   -2.3553 H   0  0  0  0  0  0  0  0  0  0  0  0
   -2.0289   -2.0844   -2.3486 H   0  0  0  0  0  0  0  0  0  0  0  0
   -3.5243   -0.6711   -0.5778 H   0  0  0  0  0  0  0  0  0  0  0  0
   -2.8388   -2.1597    0.1494 H   0  0  0  0  0  0  0  0  0  0  0  0
   -1.5130   -0.6487    1.4009 H   0  0  0  0  0  0  0  0  0  0  0  0
  1  2  1  0
  2  3  1  1
  2  4  1  0
  4  5  1  0
  2  6  1  0
  6  7  1  6
  7  8  2  0
  7  9  1  0
  6 10  1  0
 10 11  2  0
 11 12  1  0
 12 13  1  0
 13  6  1  0
  1 14  1  0
  1 15  1  0
  1 16  1  0
  3 17  1  0
  4 18  1  0
  4 19  1  0
  5 20  1  0
  5 21  1  0
  9 22  1  0
 10 23  1  0
 11 24  1  0
 12 25  1  0
 12 26  1  0
 13 27  1  0
M  END
$$$$

     RDKit          3D

 27 27  0  0  0  0  0  0  0  0999 V2000
    1.2400   -0.7715    1.4813 C   0  0  0  0  0  0  0  0  0  0  0  0
    0.8393    0.2239    0.3976 C   0  0  1  0  0  0  0  0  0  0  0  0
    0.9940    1.4753    0.9720 O   0  0  0  0  0  0  0  0  0  0  0  0
    1.7046    0.1030   -0.8016 C   0  0  0  0  0  0  0  0  0  0  0  0
    3.1303    0.2564   -0.4507 N   0  0  0  0  0  0  0  0  0  0  0  0
   -0.6181    0.0645    0.0302 C   0  0  1  0  0  0  0  0  0  0  0  0
   -1.0476    1.1436   -0.8796 C   0  0  0  0  0  0  0  0  0  0  0  0
   -1.9212    1.9616   -0.4658 O   0  0  0  0  0  0  0  0  0  0  0  0
   -0.5792    1.3473   -2.1655 O   0  0  0  0  0  0  0  0  0  0  0  0
   -0.9198   -1.2925   -0.4630 C   0  0  0  0  0  0  0  0  0  0  0  0
   -2.1235   -1.5995   -0.0201 C   0  0  0  0  0  0  0  0  0  0  0  0
   -2.6705   -0.4620    0.7850 C   0  0  0  0  0  0  0  0  0  0  0  0
   -1.4476    0.1560    1.2299 N   0  0  0  0  0  0  0  0  0  0  0  0
    0.7157   -0.5040    2.4068 H   0  0  0  0  0  0  0  0  0  0  0  0
    1.0123   -1.7984    1.1319 H   0  0  0  0  0  0  0  0  0  0  0  0
    2.3260   -0.6247    1.6548 H   0  0  0  0  0  0  0  0  0  0  0  0
    1.0424    2.1515    0.2538 H   0  0  0  0  0  0  0  0  0  0  0  0
    1.5735   -0.8890   -1.2828 H   0  0  0  0  0  0  0  0  0  0  0  0
    1.5320    0.8792   -1.5701 H   0  0  0  0  0  0  0  0  0  0  0  0
    3.6620    0.7372   -1.2156 H   0  0  0  0  0  0  0  0  0  0  0  0
    3.5467   -0.6851   -0.3386 H   0  0  0  0  0  0  0  0  0  0  0  0
   -0.9046    2.1380   -2.7054 H   0  0  0  0  0  0  0  0  0  0  0  0
   -0.3269   -1.9707   -1.0729 H   0  0  0  0  0  0  0  0  0  0  0  0
   -2.6474   -2.5504   -0.2136 H   0  0  0  0  0  0  0  0  0  0  0  0
   -3.2493    0.2030    0.1227 H   0  0  0  0  0  0  0  0  0  0  0  0
   -3.2870   -0.8366    1.6343 H   0  0  0  0  0  0  0  0  0  0  0  0
   -1.5763    1.1438    1.5452 H   0  0  0  0  0  0  0  0  0  0  0  0
  1  2  1  0
  2  3  1  1
  2  4  1  0
  4  5  1  0
  2  6  1  0
  6  7  1  6
  7  8  2  0
  7  9  1  0
  6 10  1  0
 10 11  2  0
 11 12  1  0
 12 13  1  0
 13  6  1  0
  1 14  1  0
  1 15  1  0
  1 16  1  0
  3 17  1  0
  4 18  1  0
  4 19  1  0
  5 20  1  0
  5 21  1  0
  9 22  1  0
 10 23  1  0
 11 24  1  0
 12 25  1  0
 12 26  1  0
 13 27  1  0
M  END
$$$$

     RDKit          3D

 27 27  0  0  0  0  0  0  0  0999 V2000
    1.0212    0.5041   -1.7002 C   0  0  0  0  0  0  0  0  0  0  0  0
    0.7980   -0.3068   -0.4096 C   0  0  1  0  0  0  0  0  0  0  0  0
    0.8686   -1.6349   -0.8159 O   0  0  0  0  0  0  0  0  0  0  0  0
    1.8612   -0.0436    0.5845 C   0  0  0  0  0  0  0  0  0  0  0  0
    3.1561   -0.3024   -0.0690 N   0  0  0  0  0  0  0  0  0  0  0  0
   -0.6159   -0.0489    0.0472 C   0  0  1  0  0  0  0  0  0  0  0  0
   -0.9506   -0.9617    1.1760 C   0  0  0  0  0  0  0  0  0  0  0  0
   -1.9028   -1.7965    1.0681 O   0  0  0  0  0  0  0  0  0  0  0  0
   -0.2653   -0.9552    2.3762 O   0  0  0  0  0  0  0  0  0  0  0  0
   -0.8543    1.3498    0.4238 C   0  0  0  0  0  0  0  0  0  0  0  0
   -2.1046    1.6296    0.0806 C   0  0  0  0  0  0  0  0  0  0  0  0
   -2.7314    0.4186   -0.5355 C   0  0  0  0  0  0  0  0  0  0  0  0
   -1.5626   -0.2727   -1.0240 N   0  0  0  0  0  0  0  0  0  0  0  0
    0.9196    1.5808   -1.4727 H   0  0  0  0  0  0  0  0  0  0  0  0
    2.0551    0.2384   -2.0308 H   0  0  0  0  0  0  0  0  0  0  0  0
    0.3232    0.1239   -2.4496 H   0  0  0  0  0  0  0  0  0  0  0  0
    0.9145   -2.2490   -0.0365 H   0  0  0  0  0  0  0  0  0  0  0  0
    1.8988    0.9895    0.9688 H   0  0  0  0  0  0  0  0  0  0  0  0
    1.8216   -0.7074    1.4693 H   0  0  0  0  0  0  0  0  0  0  0  0
    3.7370    0.5618   -0.1075 H   0  0  0  0  0  0  0  0  0  0  0  0
    3.6721   -1.0504    0.4394 H   0  0  0  0  0  0  0  0  0  0  0  0
   -0.7877   -1.0219    3.2461 H   0  0  0  0  0  0  0  0  0  0  0  0
   -0.2091    2.0931    0.8926 H   0  0  0  0  0  0  0  0  0  0  0  0
   -2.6610    2.5576    0.1918 H   0  0  0  0  0  0  0  0  0  0  0  0
   -3.2542   -0.1218    0.2699 H   0  0  0  0  0  0  0  0  0  0  0  0
   -3.4145    0.6999   -1.3682 H   0  0  0  0  0  0  0  0  0  0  0  0
   -1.7329   -1.2738   -1.2151 H   0  0  0  0  0  0  0  0  0  0  0  0
  1  2  1  0
  2  3  1  6
  2  4  1  0
  4  5  1  0
  2  6  1  0
  6  7  1  1
  7  8  2  0
  7  9  1  0
  6 10  1  0
 10 11  2  0
 11 12  1  0
 12 13  1  0
 13  6  1  0
  1 14  1  0
  1 15  1  0
  1 16  1  0
  3 17  1  0
  4 18  1  0
  4 19  1  0
  5 20  1  0
  5 21  1  0
  9 22  1  0
 10 23  1  0
 11 24  1  0
 12 25  1  0
 12 26  1  0
 13 27  1  0
M  END
$$$$

     RDKit          3D

 27 27  0  0  0  0  0  0  0  0999 V2000
    1.2275   -1.5939   -0.8483 C   0  0  0  0  0  0  0  0  0  0  0  0
    0.9580   -0.4738    0.1869 C   0  0  1  0  0  0  0  0  0  0  0  0
    1.2119   -1.0501    1.4337 O   0  0  0  0  0  0  0  0  0  0  0  0
    1.9146    0.6127   -0.1840 C   0  0  0  0  0  0  0  0  0  0  0  0
    1.9610    1.7656    0.6425 N   0  0  0  0  0  0  0  0  0  0  0  0
   -0.4612   -0.0914    0.1229 C   0  0  1  0  0  0  0  0  0  0  0  0
   -1.2231   -1.4319   -0.0569 C   0  0  0  0  0  0  0  0  0  0  0  0
   -1.7350   -1.9470    0.9645 O   0  0  0  0  0  0  0  0  0  0  0  0
   -1.3758   -2.0569   -1.2978 O   0  0  0  0  0  0  0  0  0  0  0  0
   -1.0853    0.3604    1.4154 C   0  0  0  0  0  0  0  0  0  0  0  0
   -1.9282    1.3157    1.1846 C   0  0  0  0  0  0  0  0  0  0  0  0
   -1.9402    1.5815   -0.3017 C   0  0  0  0  0  0  0  0  0  0  0  0
   -0.9668    0.7516   -0.8716 N   0  0  0  0  0  0  0  0  0  0  0  0
    0.6420   -2.4782   -0.5963 H   0  0  0  0  0  0  0  0  0  0  0  0
    1.0316   -1.1947   -1.8313 H   0  0  0  0  0  0  0  0  0  0  0  0
    2.3375   -1.7927   -0.7182 H   0  0  0  0  0  0  0  0  0  0  0  0
    1.4871   -1.9587    1.3423 H   0  0  0  0  0  0  0  0  0  0  0  0
    2.9539    0.1488   -0.2341 H   0  0  0  0  0  0  0  0  0  0  0  0
    1.7237    0.8701   -1.2687 H   0  0  0  0  0  0  0  0  0  0  0  0
    1.8207    2.6031   -0.0083 H   0  0  0  0  0  0  0  0  0  0  0  0
    2.8814    1.9518    1.0795 H   0  0  0  0  0  0  0  0  0  0  0  0
   -2.3286   -2.4520   -1.4722 H   0  0  0  0  0  0  0  0  0  0  0  0
   -0.8864   -0.0306    2.4253 H   0  0  0  0  0  0  0  0  0  0  0  0
   -2.5708    1.9226    1.8884 H   0  0  0  0  0  0  0  0  0  0  0  0
   -2.9596    1.4636   -0.7314 H   0  0  0  0  0  0  0  0  0  0  0  0
   -1.6758    2.7014   -0.4126 H   0  0  0  0  0  0  0  0  0  0  0  0
   -1.0141    0.5031   -1.8525 H   0  0  0  0  0  0  0  0  0  0  0  0
  1  2  1  0
  2  3  1  1
  2  4  1  0
  4  5  1  0
  2  6  1  0
  6  7  1  6
  7  8  2  0
  7  9  1  0
  6 10  1  0
 10 11  2  0
 11 12  1  0
 12 13  1  0
 13  6  1  0
  1 14  1  0
  1 15  1  0
  1 16  1  0
  3 17  1  0
  4 18  1  0
  4 19  1  0
  5 20  1  0
  5 21  1  0
  9 22  1  0
 10 23  1  0
 11 24  1  0
 12 25  1  0
 12 26  1  0
 13 27  1  0
M  END
$$$$

     RDKit          3D

 27 27  0  0  0  0  0  0  0  0999 V2000
   -1.4890   -1.1375    0.6082 C   0  0  0  0  0  0  0  0  0  0  0  0
   -0.9025   -0.0411   -0.4636 C   0  0  1  0  0  0  0  0  0  0  0  0
   -1.3049   -0.7059   -1.6102 O   0  0  0  0  0  0  0  0  0  0  0  0
   -1.7046    1.1613   -0.1217 C   0  0  0  0  0  0  0  0  0  0  0  0
   -3.1003    0.7021    0.0906 N   0  0  0  0  0  0  0  0  0  0  0  0
    0.5207   -0.1277   -0.1482 C   0  0  1  0  0  0  0  0  0  0  0  0
    0.9674    1.0111    0.7793 C   0  0  0  0  0  0  0  0  0  0  0  0
    1.6334    0.7922    1.8171 O   0  0  0  0  0  0  0  0  0  0  0  0
    0.6526    2.3282    0.4682 O   0  0  0  0  0  0  0  0  0  0  0  0
    1.0374   -1.2952    0.5558 C   0  0  0  0  0  0  0  0  0  0  0  0
    2.3125   -1.5217    0.1268 C   0  0  0  0  0  0  0  0  0  0  0  0
    2.6531   -0.4775   -0.8588 C   0  0  0  0  0  0  0  0  0  0  0  0
    1.3975   -0.0197   -1.3160 N   0  0  0  0  0  0  0  0  0  0  0  0
   -2.5671   -1.2123    0.3822 H   0  0  0  0  0  0  0  0  0  0  0  0
   -0.9593   -2.0539    0.2784 H   0  0  0  0  0  0  0  0  0  0  0  0
   -1.2010   -0.7374    1.5575 H   0  0  0  0  0  0  0  0  0  0  0  0
   -0.5132   -1.1480   -1.9897 H   0  0  0  0  0  0  0  0  0  0  0  0
   -1.3637    1.5641    0.8687 H   0  0  0  0  0  0  0  0  0  0  0  0
   -1.6719    1.9415   -0.8743 H   0  0  0  0  0  0  0  0  0  0  0  0
   -3.5181    1.3757    0.7491 H   0  0  0  0  0  0  0  0  0  0  0  0
   -3.5538    0.5494   -0.7852 H   0  0  0  0  0  0  0  0  0  0  0  0
    1.3979    3.0652    0.5178 H   0  0  0  0  0  0  0  0  0  0  0  0
    0.5459   -1.8833    1.3084 H   0  0  0  0  0  0  0  0  0  0  0  0
    2.9024   -2.3371    0.4794 H   0  0  0  0  0  0  0  0  0  0  0  0
    3.2636    0.2975   -0.3871 H   0  0  0  0  0  0  0  0  0  0  0  0
    3.2499   -0.9114   -1.7087 H   0  0  0  0  0  0  0  0  0  0  0  0
    1.3150    0.8213   -1.8518 H   0  0  0  0  0  0  0  0  0  0  0  0
  1  2  1  0
  2  3  1  6
  2  4  1  0
  4  5  1  0
  2  6  1  0
  6  7  1  1
  7  8  2  0
  7  9  1  0
  6 10  1  0
 10 11  2  0
 11 12  1  0
 12 13  1  0
 13  6  1  0
  1 14  1  0
  1 15  1  0
  1 16  1  0
  3 17  1  0
  4 18  1  0
  4 19  1  0
  5 20  1  0
  5 21  1  0
  9 22  1  0
 10 23  1  0
 11 24  1  0
 12 25  1  0
 12 26  1  0
 13 27  1  0
M  END
$$$$

     RDKit          3D

 27 27  0  0  0  0  0  0  0  0999 V2000
    1.0846   -0.7475    1.3464 C   0  0  0  0  0  0  0  0  0  0  0  0
    0.7992    0.2058    0.1753 C   0  0  1  0  0  0  0  0  0  0  0  0
    1.0623    1.5128    0.6822 O   0  0  0  0  0  0  0  0  0  0  0  0
    1.8523   -0.0729   -0.8668 C   0  0  0  0  0  0  0  0  0  0  0  0
    3.1434    0.1139   -0.2422 N   0  0  0  0  0  0  0  0  0  0  0  0
   -0.6179    0.1647   -0.2515 C   0  0  1  0  0  0  0  0  0  0  0  0
   -0.9729    1.3041   -1.2425 C   0  0  0  0  0  0  0  0  0  0  0  0
   -1.3766    0.9251   -2.3711 O   0  0  0  0  0  0  0  0  0  0  0  0
   -0.9173    2.5869   -1.0093 O   0  0  0  0  0  0  0  0  0  0  0  0
   -1.1223   -1.0606   -0.9460 C   0  0  0  0  0  0  0  0  0  0  0  0
   -2.1206   -1.5517   -0.2542 C   0  0  0  0  0  0  0  0  0  0  0  0
   -2.3590   -0.7541    0.9566 C   0  0  0  0  0  0  0  0  0  0  0  0
   -1.5223    0.3759    0.7849 N   0  0  0  0  0  0  0  0  0  0  0  0
    0.3168   -0.7036    2.1146 H   0  0  0  0  0  0  0  0  0  0  0  0
    2.0382   -0.4198    1.8101 H   0  0  0  0  0  0  0  0  0  0  0  0
    1.1665   -1.7549    0.9184 H   0  0  0  0  0  0  0  0  0  0  0  0
    1.1866    2.0649   -0.1561 H   0  0  0  0  0  0  0  0  0  0  0  0
    1.8176   -1.1685   -1.1361 H   0  0  0  0  0  0  0  0  0  0  0  0
    1.7647    0.5077   -1.7792 H   0  0  0  0  0  0  0  0  0  0  0  0
    3.4295   -0.6881    0.3503 H   0  0  0  0  0  0  0  0  0  0  0  0
    3.1048    1.0048    0.3200 H   0  0  0  0  0  0  0  0  0  0  0  0
   -1.6383    3.2168   -1.4633 H   0  0  0  0  0  0  0  0  0  0  0  0
   -0.7667   -1.5012   -1.8573 H   0  0  0  0  0  0  0  0  0  0  0  0
   -2.7909   -2.3989   -0.5352 H   0  0  0  0  0  0  0  0  0  0  0  0
   -2.0419   -1.4485    1.8256 H   0  0  0  0  0  0  0  0  0  0  0  0
   -3.4227   -0.4511    1.1484 H   0  0  0  0  0  0  0  0  0  0  0  0
   -1.0969    0.7380    1.6779 H   0  0  0  0  0  0  0  0  0  0  0  0
  1  2  1  0
  2  3  1  1
  2  4  1  0
  4  5  1  0
  2  6  1  0
  6  7  1  6
  7  8  2  0
  7  9  1  0
  6 10  1  0
 10 11  2  0
 11 12  1  0
 12 13  1  0
 13  6  1  0
  1 14  1  0
  1 15  1  0
  1 16  1  0
  3 17  1  0
  4 18  1  0
  4 19  1  0
  5 20  1  0
  5 21  1  0
  9 22  1  0
 10 23  1  0
 11 24  1  0
 12 25  1  0
 12 26  1  0
 13 27  1  0
M  END
$$$$

     RDKit          3D

 27 27  0  0  0  0  0  0  0  0999 V2000
   -1.4578   -0.7243    1.1759 C   0  0  0  0  0  0  0  0  0  0  0  0
   -0.8897   -0.4327   -0.2653 C   0  0  1  0  0  0  0  0  0  0  0  0
   -1.2226   -1.5373   -1.0251 O   0  0  0  0  0  0  0  0  0  0  0  0
   -1.6684    0.7668   -0.6937 C   0  0  0  0  0  0  0  0  0  0  0  0
   -3.1102    0.5986   -0.4565 N   0  0  0  0  0  0  0  0  0  0  0  0
    0.5332   -0.2132   -0.0933 C   0  0  1  0  0  0  0  0  0  0  0  0
    0.7780    1.1873    0.5107 C   0  0  0  0  0  0  0  0  0  0  0  0
    0.8670    1.3629    1.6803 O   0  0  0  0  0  0  0  0  0  0  0  0
    0.9130    2.2647   -0.3764 O   0  0  0  0  0  0  0  0  0  0  0  0
    1.2107   -1.1955    0.8094 C   0  0  0  0  0  0  0  0  0  0  0  0
    2.5178   -1.1267    0.5356 C   0  0  0  0  0  0  0  0  0  0  0  0
    2.7433   -0.1458   -0.5610 C   0  0  0  0  0  0  0  0  0  0  0  0
    1.4247   -0.2537   -1.2112 N   0  0  0  0  0  0  0  0  0  0  0  0
   -2.2371   -1.5305    1.0581 H   0  0  0  0  0  0  0  0  0  0  0  0
   -0.7094   -1.0790    1.8540 H   0  0  0  0  0  0  0  0  0  0  0  0
   -1.9041    0.1722    1.6242 H   0  0  0  0  0  0  0  0  0  0  0  0
   -1.5855   -1.2757   -1.9111 H   0  0  0  0  0  0  0  0  0  0  0  0
   -1.5751    0.9003   -1.8084 H   0  0  0  0  0  0  0  0  0  0  0  0
   -1.2952    1.7181   -0.2717 H   0  0  0  0  0  0  0  0  0  0  0  0
   -3.6508    1.1941   -1.1120 H   0  0  0  0  0  0  0  0  0  0  0  0
   -3.3678    0.9595    0.4970 H   0  0  0  0  0  0  0  0  0  0  0  0
    1.5719    3.0172   -0.0594 H   0  0  0  0  0  0  0  0  0  0  0  0
    0.8297   -1.9145    1.5088 H   0  0  0  0  0  0  0  0  0  0  0  0
    3.2825   -1.6822    1.0885 H   0  0  0  0  0  0  0  0  0  0  0  0
    3.5146   -0.6192   -1.2652 H   0  0  0  0  0  0  0  0  0  0  0  0
    3.0638    0.8170   -0.2760 H   0  0  0  0  0  0  0  0  0  0  0  0
    1.4232   -1.2284   -1.6765 H   0  0  0  0  0  0  0  0  0  0  0  0
  1  2  1  0
  2  3  1  6
  2  4  1  0
  4  5  1  0
  2  6  1  0
  6  7  1  1
  7  8  2  0
  7  9  1  0
  6 10  1  0
 10 11  2  0
 11 12  1  0
 12 13  1  0
 13  6  1  0
  1 14  1  0
  1 15  1  0
  1 16  1  0
  3 17  1  0
  4 18  1  0
  4 19  1  0
  5 20  1  0
  5 21  1  0
  9 22  1  0
 10 23  1  0
 11 24  1  0
 12 25  1  0
 12 26  1  0
 13 27  1  0
M  END
$$$$
