
     RDKit          3D

 23 24  0  0  0  0  0  0  0  0999 V2000
    5.1949    0.5865    0.1094 N   0  0  0  0  0  0  0  0  0  0  0  0
    3.8967    0.5770    0.0238 C   0  0  0  0  0  0  0  0  0  0  0  0
    3.2668    1.7017   -0.3497 N   0  0  0  0  0  0  0  0  0  0  0  0
    1.9570    1.7663   -0.4579 N   0  0  0  0  0  0  0  0  0  0  0  0
    1.2011    0.6909   -0.1934 C   0  0  0  0  0  0  0  0  0  0  0  0
   -0.1703    0.8277   -0.3270 O   0  0  0  0  0  0  0  0  0  0  0  0
   -0.9634   -0.2863   -0.0537 C   0  0  2  0  0  0  0  0  0  0  0  0
   -1.9856   -0.6317   -1.1364 C   0  0  0  0  0  0  0  0  0  0  0  0
   -2.8648   -1.1216    0.0230 C   0  0  0  0  0  0  0  0  0  0  0  0
   -2.1462   -0.0563    0.8578 C   0  0  2  0  0  0  0  0  0  0  0  0
   -2.8210    1.2083    0.6864 N   0  0  0  0  0  0  0  0  0  0  0  0
    1.8249   -0.4356    0.1802 N   0  0  0  0  0  0  0  0  0  0  0  0
    3.1549   -0.5071    0.2918 N   0  0  0  0  0  0  0  0  0  0  0  0
    5.7269   -0.2629    0.3953 H   0  0  0  0  0  0  0  0  0  0  0  0
   -0.4306   -1.2064    0.2530 H   0  0  0  0  0  0  0  0  0  0  0  0
   -1.6282   -1.4153   -1.7970 H   0  0  0  0  0  0  0  0  0  0  0  0
   -2.4500    0.2514   -1.5746 H   0  0  0  0  0  0  0  0  0  0  0  0
   -2.5456   -2.1301    0.3097 H   0  0  0  0  0  0  0  0  0  0  0  0
   -3.9297   -0.9427   -0.1231 H   0  0  0  0  0  0  0  0  0  0  0  0
   -2.0027   -0.3153    1.9071 H   0  0  0  0  0  0  0  0  0  0  0  0
   -3.7282    1.1247    0.1703 H   0  0  0  0  0  0  0  0  0  0  0  0
   -2.2080    1.9435    0.2734 H   0  0  0  0  0  0  0  0  0  0  0  0
    3.6512   -1.3667    0.5782 H   0  0  0  0  0  0  0  0  0  0  0  0
  1  2  2  3
  2  3  1  0
  3  4  2  0
  4  5  1  0
  5  6  1  0
  6  7  1  0
  7  8  1  0
  8  9  1  0
  9 10  1  0
 10 11  1  0
  5 12  2  0
 12 13  1  0
 13  2  1  0
 10  7  1  0
  1 14  1  0
  7 15  1  1
  8 16  1  0
  8 17  1  0
  9 18  1  0
  9 19  1  0
 10 20  1  1
 11 21  1  0
 11 22  1  0
 13 23  1  0
M  END
$$$$

     RDKit          3D

 23 24  0  0  0  0  0  0  0  0999 V2000
    5.0151    0.7936   -0.2203 N   0  0  0  0  0  0  0  0  0  0  0  0
    3.7678    0.4481   -0.2591 C   0  0  0  0  0  0  0  0  0  0  0  0
    2.8858    1.0484    0.5308 N   0  0  0  0  0  0  0  0  0  0  0  0
    1.6138    0.6752    0.4711 N   0  0  0  0  0  0  0  0  0  0  0  0
    1.1656   -0.2794   -0.3466 C   0  0  0  0  0  0  0  0  0  0  0  0
   -0.1721   -0.6214   -0.3606 O   0  0  0  0  0  0  0  0  0  0  0  0
   -1.0558    0.0446    0.4934 C   0  0  2  0  0  0  0  0  0  0  0  0
   -1.8609   -0.9833    1.3019 C   0  0  0  0  0  0  0  0  0  0  0  0
   -2.8285   -0.9861    0.1123 C   0  0  0  0  0  0  0  0  0  0  0  0
   -2.3844    0.4435   -0.1245 C   0  0  2  0  0  0  0  0  0  0  0  0
   -2.3023    0.8223   -1.5206 N   0  0  0  0  0  0  0  0  0  0  0  0
    2.0730   -0.8897   -1.1522 N   0  0  0  0  0  0  0  0  0  0  0  0
    3.3448   -0.5165   -1.0924 N   0  0  0  0  0  0  0  0  0  0  0  0
    5.3571    1.5262    0.4076 H   0  0  0  0  0  0  0  0  0  0  0  0
   -0.5885    0.8132    1.1265 H   0  0  0  0  0  0  0  0  0  0  0  0
   -1.3491   -1.9328    1.4706 H   0  0  0  0  0  0  0  0  0  0  0  0
   -2.2908   -0.4760    2.1843 H   0  0  0  0  0  0  0  0  0  0  0  0
   -2.4544   -1.6640   -0.6873 H   0  0  0  0  0  0  0  0  0  0  0  0
   -3.8754   -1.1129    0.3959 H   0  0  0  0  0  0  0  0  0  0  0  0
   -2.9011    1.1528    0.5288 H   0  0  0  0  0  0  0  0  0  0  0  0
   -1.9509    1.8052   -1.5445 H   0  0  0  0  0  0  0  0  0  0  0  0
   -3.2868    0.8558   -1.8760 H   0  0  0  0  0  0  0  0  0  0  0  0
    4.0780   -0.9669   -1.7020 H   0  0  0  0  0  0  0  0  0  0  0  0
  1  2  2  3
  2  3  1  0
  3  4  2  0
  4  5  1  0
  5  6  1  0
  6  7  1  0
  7  8  1  0
  8  9  1  0
  9 10  1  0
 10 11  1  0
  5 12  2  0
 12 13  1  0
 13  2  1  0
 10  7  1  0
  1 14  1  0
  7 15  1  1
  8 16  1  0
  8 17  1  0
  9 18  1  0
  9 19  1  0
 10 20  1  1
 11 21  1  0
 11 22  1  0
 13 23  1  0
M  END
$$$$

     RDKit          3D

 23 24  0  0  0  0  0  0  0  0999 V2000
    5.0963    0.0352    0.7631 N   0  0  0  0  0  0  0  0  0  0  0  0
    3.8320    0.2033    0.5203 C   0  0  0  0  0  0  0  0  0  0  0  0
    3.2970    1.4095    0.2703 N   0  0  0  0  0  0  0  0  0  0  0  0
    2.0050    1.5754    0.0229 N   0  0  0  0  0  0  0  0  0  0  0  0
    1.1688    0.5059    0.0156 C   0  0  0  0  0  0  0  0  0  0  0  0
   -0.1888    0.6458   -0.2398 O   0  0  0  0  0  0  0  0  0  0  0  0
   -0.9964   -0.4924   -0.2332 C   0  0  2  0  0  0  0  0  0  0  0  0
   -1.8032   -0.5431   -1.5394 C   0  0  0  0  0  0  0  0  0  0  0  0
   -2.8624    0.2672   -0.8178 C   0  0  0  0  0  0  0  0  0  0  0  0
   -2.3261   -0.3498    0.4721 C   0  0  2  0  0  0  0  0  0  0  0  0
   -2.3472    0.4976    1.6148 N   0  0  0  0  0  0  0  0  0  0  0  0
    1.7211   -0.6920    0.2677 N   0  0  0  0  0  0  0  0  0  0  0  0
    3.0062   -0.8575    0.5137 N   0  0  0  0  0  0  0  0  0  0  0  0
    5.7545    0.8390    0.7737 H   0  0  0  0  0  0  0  0  0  0  0  0
   -0.4589   -1.4317   -0.0174 H   0  0  0  0  0  0  0  0  0  0  0  0
   -2.0895   -1.5929   -1.7259 H   0  0  0  0  0  0  0  0  0  0  0  0
   -1.3134   -0.0142   -2.3818 H   0  0  0  0  0  0  0  0  0  0  0  0
   -3.9069   -0.0289   -1.0413 H   0  0  0  0  0  0  0  0  0  0  0  0
   -2.6980    1.3460   -0.9073 H   0  0  0  0  0  0  0  0  0  0  0  0
   -2.7644   -1.3389    0.6580 H   0  0  0  0  0  0  0  0  0  0  0  0
   -2.2857    1.5069    1.4254 H   0  0  0  0  0  0  0  0  0  0  0  0
   -3.2440    0.3110    2.1352 H   0  0  0  0  0  0  0  0  0  0  0  0
    3.4038   -1.8014    0.7058 H   0  0  0  0  0  0  0  0  0  0  0  0
  1  2  2  3
  2  3  1  0
  3  4  2  0
  4  5  1  0
  5  6  1  0
  6  7  1  0
  7  8  1  0
  8  9  1  0
  9 10  1  0
 10 11  1  0
  5 12  2  0
 12 13  1  0
 13  2  1  0
 10  7  1  0
  1 14  1  0
  7 15  1  1
  8 16  1  0
  8 17  1  0
  9 18  1  0
  9 19  1  0
 10 20  1  1
 11 21  1  0
 11 22  1  0
 13 23  1  0
M  END
$$$$

     RDKit          3D

 23 24  0  0  0  0  0  0  0  0999 V2000
    5.1399   -0.0635    0.7743 N   0  0  0  0  0  0  0  0  0  0  0  0
    3.8655   -0.1451    0.5243 C   0  0  0  0  0  0  0  0  0  0  0  0
    2.9372    0.3435    1.3612 N   0  0  0  0  0  0  0  0  0  0  0  0
    1.6465    0.2445    1.0776 N   0  0  0  0  0  0  0  0  0  0  0  0
    1.2020   -0.3453   -0.0530 C   0  0  0  0  0  0  0  0  0  0  0  0
   -0.1563   -0.4437   -0.3406 O   0  0  0  0  0  0  0  0  0  0  0  0
   -1.0674    0.0758    0.5550 C   0  0  2  0  0  0  0  0  0  0  0  0
   -2.2163   -0.8257    0.9649 C   0  0  0  0  0  0  0  0  0  0  0  0
   -2.9926    0.4890    1.1372 C   0  0  0  0  0  0  0  0  0  0  0  0
   -2.1406    0.9899   -0.0219 C   0  0  2  0  0  0  0  0  0  0  0  0
   -2.6751    0.4774   -1.2530 N   0  0  0  0  0  0  0  0  0  0  0  0
    2.1462   -0.8298   -0.8810 N   0  0  0  0  0  0  0  0  0  0  0  0
    3.4358   -0.7344   -0.6043 N   0  0  0  0  0  0  0  0  0  0  0  0
    5.8218   -0.4548    0.0993 H   0  0  0  0  0  0  0  0  0  0  0  0
   -0.6550    0.5553    1.4780 H   0  0  0  0  0  0  0  0  0  0  0  0
   -2.0684   -1.3789    1.9063 H   0  0  0  0  0  0  0  0  0  0  0  0
   -2.6124   -1.3845    0.1142 H   0  0  0  0  0  0  0  0  0  0  0  0
   -4.0625    0.4126    0.9392 H   0  0  0  0  0  0  0  0  0  0  0  0
   -2.6671    0.9679    2.0628 H   0  0  0  0  0  0  0  0  0  0  0  0
   -1.8915    2.0599    0.0075 H   0  0  0  0  0  0  0  0  0  0  0  0
   -3.1650    1.1976   -1.8158 H   0  0  0  0  0  0  0  0  0  0  0  0
   -2.0019   -0.0927   -1.8055 H   0  0  0  0  0  0  0  0  0  0  0  0
    4.1770   -1.1150   -1.2547 H   0  0  0  0  0  0  0  0  0  0  0  0
  1  2  2  3
  2  3  1  0
  3  4  2  0
  4  5  1  0
  5  6  1  0
  6  7  1  0
  7  8  1  0
  8  9  1  0
  9 10  1  0
 10 11  1  0
  5 12  2  0
 12 13  1  0
 13  2  1  0
 10  7  1  0
  1 14  1  0
  7 15  1  1
  8 16  1  0
  8 17  1  0
  9 18  1  0
  9 19  1  0
 10 20  1  6
 11 21  1  0
 11 22  1  0
 13 23  1  0
M  END
$$$$

     RDKit          3D

 23 24  0  0  0  0  0  0  0  0999 V2000
    5.0671   -0.2482   -0.7183 N   0  0  0  0  0  0  0  0  0  0  0  0
    3.7877   -0.2768   -0.5452 C   0  0  0  0  0  0  0  0  0  0  0  0
    3.1305    0.5833    0.2529 N   0  0  0  0  0  0  0  0  0  0  0  0
    1.8155    0.5044    0.3907 N   0  0  0  0  0  0  0  0  0  0  0  0
    1.0772   -0.4229   -0.2478 C   0  0  0  0  0  0  0  0  0  0  0  0
   -0.2950   -0.5275   -0.1221 O   0  0  0  0  0  0  0  0  0  0  0  0
   -1.0194    0.3601    0.7086 C   0  0  2  0  0  0  0  0  0  0  0  0
   -1.8918   -0.4740    1.6555 C   0  0  0  0  0  0  0  0  0  0  0  0
   -2.9400   -0.4623    0.5569 C   0  0  0  0  0  0  0  0  0  0  0  0
   -2.2964    0.8461    0.0805 C   0  0  2  0  0  0  0  0  0  0  0  0
   -2.2805    0.9952   -1.3525 N   0  0  0  0  0  0  0  0  0  0  0  0
    1.7391   -1.2815   -1.0454 N   0  0  0  0  0  0  0  0  0  0  0  0
    3.0573   -1.2064   -1.1867 N   0  0  0  0  0  0  0  0  0  0  0  0
    5.6494    0.4680   -0.2270 H   0  0  0  0  0  0  0  0  0  0  0  0
   -0.4130    1.1157    1.2282 H   0  0  0  0  0  0  0  0  0  0  0  0
   -2.2505    0.1207    2.5099 H   0  0  0  0  0  0  0  0  0  0  0  0
   -1.4724   -1.4615    1.8976 H   0  0  0  0  0  0  0  0  0  0  0  0
   -3.9765   -0.3040    0.8929 H   0  0  0  0  0  0  0  0  0  0  0  0
   -2.7819   -1.2269   -0.2229 H   0  0  0  0  0  0  0  0  0  0  0  0
   -2.7278    1.7032    0.6240 H   0  0  0  0  0  0  0  0  0  0  0  0
   -3.1188    1.5741   -1.6143 H   0  0  0  0  0  0  0  0  0  0  0  0
   -1.4413    1.5047   -1.6992 H   0  0  0  0  0  0  0  0  0  0  0  0
    3.5816   -1.8834   -1.8161 H   0  0  0  0  0  0  0  0  0  0  0  0
  1  2  2  3
  2  3  1  0
  3  4  2  0
  4  5  1  0
  5  6  1  0
  6  7  1  0
  7  8  1  0
  8  9  1  0
  9 10  1  0
 10 11  1  0
  5 12  2  0
 12 13  1  0
 13  2  1  0
 10  7  1  0
  1 14  1  0
  7 15  1  1
  8 16  1  0
  8 17  1  0
  9 18  1  0
  9 19  1  0
 10 20  1  1
 11 21  1  0
 11 22  1  0
 13 23  1  0
M  END
$$$$

     RDKit          3D

 23 24  0  0  0  0  0  0  0  0999 V2000
    5.0755    0.6256    0.2737 N   0  0  0  0  0  0  0  0  0  0  0  0
    3.8119    0.4068    0.1185 C   0  0  0  0  0  0  0  0  0  0  0  0
    2.9797    0.3784    1.1856 N   0  0  0  0  0  0  0  0  0  0  0  0
    1.6990    0.1529    0.9906 N   0  0  0  0  0  0  0  0  0  0  0  0
    1.1782   -0.0528   -0.2418 C   0  0  0  0  0  0  0  0  0  0  0  0
   -0.1609   -0.2857   -0.4166 O   0  0  0  0  0  0  0  0  0  0  0  0
   -1.0311   -0.3167    0.6863 C   0  0  2  0  0  0  0  0  0  0  0  0
   -1.8629   -1.6036    0.6217 C   0  0  0  0  0  0  0  0  0  0  0  0
   -2.8509   -0.7995   -0.2368 C   0  0  0  0  0  0  0  0  0  0  0  0
   -2.3268    0.4367    0.4997 C   0  0  2  0  0  0  0  0  0  0  0  0
   -2.2518    1.6172   -0.3189 N   0  0  0  0  0  0  0  0  0  0  0  0
    2.0093   -0.0235   -1.2979 N   0  0  0  0  0  0  0  0  0  0  0  0
    3.2958    0.2020   -1.1120 N   0  0  0  0  0  0  0  0  0  0  0  0
    5.4451    0.7800    1.2323 H   0  0  0  0  0  0  0  0  0  0  0  0
   -0.5763   -0.1456    1.6761 H   0  0  0  0  0  0  0  0  0  0  0  0
   -1.3766   -2.4298    0.1033 H   0  0  0  0  0  0  0  0  0  0  0  0
   -2.2768   -1.8564    1.6190 H   0  0  0  0  0  0  0  0  0  0  0  0
   -2.5270   -0.8444   -1.2922 H   0  0  0  0  0  0  0  0  0  0  0  0
   -3.9004   -1.0318   -0.0697 H   0  0  0  0  0  0  0  0  0  0  0  0
   -2.8559    0.5872    1.4542 H   0  0  0  0  0  0  0  0  0  0  0  0
   -2.5709    2.4468    0.2588 H   0  0  0  0  0  0  0  0  0  0  0  0
   -2.8959    1.5261   -1.1300 H   0  0  0  0  0  0  0  0  0  0  0  0
    3.9696    0.2299   -1.9273 H   0  0  0  0  0  0  0  0  0  0  0  0
  1  2  2  3
  2  3  1  0
  3  4  2  0
  4  5  1  0
  5  6  1  0
  6  7  1  0
  7  8  1  0
  8  9  1  0
  9 10  1  0
 10 11  1  0
  5 12  2  0
 12 13  1  0
 13  2  1  0
 10  7  1  0
  1 14  1  0
  7 15  1  1
  8 16  1  0
  8 17  1  0
  9 18  1  0
  9 19  1  0
 10 20  1  1
 11 21  1  0
 11 22  1  0
 13 23  1  0
M  END
$$$$

     RDKit          3D

 23 24  0  0  0  0  0  0  0  0999 V2000
    5.0680   -0.4277    0.2467 N   0  0  0  0  0  0  0  0  0  0  0  0
    3.8294   -0.1514    0.0325 C   0  0  0  0  0  0  0  0  0  0  0  0
    2.9139   -1.0878    0.3419 N   0  0  0  0  0  0  0  0  0  0  0  0
    1.6507   -0.7815    0.1134 N   0  0  0  0  0  0  0  0  0  0  0  0
    1.2826    0.3995   -0.4009 C   0  0  0  0  0  0  0  0  0  0  0  0
   -0.0653    0.6487   -0.6129 O   0  0  0  0  0  0  0  0  0  0  0  0
   -1.0058   -0.3225   -0.2912 C   0  0  2  0  0  0  0  0  0  0  0  0
   -2.0037   -0.6600   -1.4055 C   0  0  0  0  0  0  0  0  0  0  0  0
   -3.0421   -0.8376   -0.2877 C   0  0  0  0  0  0  0  0  0  0  0  0
   -2.2154    0.1814    0.5072 C   0  0  2  0  0  0  0  0  0  0  0  0
   -2.5557    1.5521    0.2288 N   0  0  0  0  0  0  0  0  0  0  0  0
    2.2301    1.3164   -0.6997 N   0  0  0  0  0  0  0  0  0  0  0  0
    3.4939    1.0378   -0.4826 N   0  0  0  0  0  0  0  0  0  0  0  0
    5.4162   -1.3091    0.6365 H   0  0  0  0  0  0  0  0  0  0  0  0
   -0.6166   -1.2729    0.1302 H   0  0  0  0  0  0  0  0  0  0  0  0
   -2.2711    0.2461   -1.9922 H   0  0  0  0  0  0  0  0  0  0  0  0
   -1.7876   -1.5693   -1.9622 H   0  0  0  0  0  0  0  0  0  0  0  0
   -2.9144   -1.8405    0.1550 H   0  0  0  0  0  0  0  0  0  0  0  0
   -4.0511   -0.5161   -0.5422 H   0  0  0  0  0  0  0  0  0  0  0  0
   -2.1653   -0.0096    1.5796 H   0  0  0  0  0  0  0  0  0  0  0  0
   -1.8839    2.0084   -0.4232 H   0  0  0  0  0  0  0  0  0  0  0  0
   -3.5542    1.6628   -0.0989 H   0  0  0  0  0  0  0  0  0  0  0  0
    4.2473    1.7330   -0.7063 H   0  0  0  0  0  0  0  0  0  0  0  0
  1  2  2  3
  2  3  1  0
  3  4  2  0
  4  5  1  0
  5  6  1  0
  6  7  1  0
  7  8  1  0
  8  9  1  0
  9 10  1  0
 10 11  1  0
  5 12  2  0
 12 13  1  0
 13  2  1  0
 10  7  1  0
  1 14  1  0
  7 15  1  1
  8 16  1  0
  8 17  1  0
  9 18  1  0
  9 19  1  0
 10 20  1  1
 11 21  1  0
 11 22  1  0
 13 23  1  0
M  END
$$$$

     RDKit          3D

 23 24  0  0  0  0  0  0  0  0999 V2000
    5.2244   -0.2270    0.1348 N   0  0  0  0  0  0  0  0  0  0  0  0
    3.9569   -0.3090   -0.1143 C   0  0  0  0  0  0  0  0  0  0  0  0
    3.5204   -0.8603   -1.2576 N   0  0  0  0  0  0  0  0  0  0  0  0
    2.2306   -0.9584   -1.5409 N   0  0  0  0  0  0  0  0  0  0  0  0
    1.2980   -0.4988   -0.6730 C   0  0  0  0  0  0  0  0  0  0  0  0
   -0.0725   -0.5900   -0.9476 O   0  0  0  0  0  0  0  0  0  0  0  0
   -0.9599   -0.0956   -0.0066 C   0  0  2  0  0  0  0  0  0  0  0  0
   -2.1224   -0.9900    0.3699 C   0  0  0  0  0  0  0  0  0  0  0  0
   -2.8954    0.3075    0.5873 C   0  0  0  0  0  0  0  0  0  0  0  0
   -2.0106    0.8766   -0.5278 C   0  0  2  0  0  0  0  0  0  0  0  0
   -2.5483    0.5503   -1.8238 N   0  0  0  0  0  0  0  0  0  0  0  0
    1.7652    0.0483    0.4637 N   0  0  0  0  0  0  0  0  0  0  0  0
    3.0419    0.1536    0.7607 N   0  0  0  0  0  0  0  0  0  0  0  0
    5.5542    0.2028    1.0255 H   0  0  0  0  0  0  0  0  0  0  0  0
   -0.5009    0.3434    0.9115 H   0  0  0  0  0  0  0  0  0  0  0  0
   -1.9836   -1.6026    1.2737 H   0  0  0  0  0  0  0  0  0  0  0  0
   -2.5445   -1.5109   -0.5164 H   0  0  0  0  0  0  0  0  0  0  0  0
   -2.5995    0.7671    1.5468 H   0  0  0  0  0  0  0  0  0  0  0  0
   -3.9577    0.2707    0.3592 H   0  0  0  0  0  0  0  0  0  0  0  0
   -1.7282    1.9348   -0.3862 H   0  0  0  0  0  0  0  0  0  0  0  0
   -2.4972    1.3598   -2.4960 H   0  0  0  0  0  0  0  0  0  0  0  0
   -3.5643    0.2466   -1.7529 H   0  0  0  0  0  0  0  0  0  0  0  0
    3.3932    0.5812    1.6483 H   0  0  0  0  0  0  0  0  0  0  0  0
  1  2  2  3
  2  3  1  0
  3  4  2  0
  4  5  1  0
  5  6  1  0
  6  7  1  0
  7  8  1  0
  8  9  1  0
  9 10  1  0
 10 11  1  0
  5 12  2  0
 12 13  1  0
 13  2  1  0
 10  7  1  0
  1 14  1  0
  7 15  1  1
  8 16  1  0
  8 17  1  0
  9 18  1  0
  9 19  1  0
 10 20  1  1
 11 21  1  0
 11 22  1  0
 13 23  1  0
M  END
$$$$
