
     RDKit          3D

 28 28  0  0  0  0  0  0  0  0999 V2000
   -0.7409    1.4876    0.7606 C   0  0  0  0  0  0  0  0  0  0  0  0
   -1.0784    0.5322   -0.3473 C   0  0  2  0  0  0  0  0  0  0  0  0
   -1.9460   -0.5965    0.2115 C   0  0  0  0  0  0  0  0  0  0  0  0
   -3.2309   -0.1058    0.7933 C   0  0  0  0  0  0  0  0  0  0  0  0
   -3.9427   -1.2182    1.2956 O   0  0  0  0  0  0  0  0  0  0  0  0
    0.0817   -0.0796   -0.9188 N   0  0  0  0  0  0  0  0  0  0  0  0
   -0.1413   -0.9119   -2.1102 C   0  0  0  0  0  0  0  0  0  0  0  0
    1.4000   -0.0013   -0.4619 C   0  0  0  0  0  0  0  0  0  0  0  0
    1.9494    1.1774   -0.1835 N   0  0  0  0  0  0  0  0  0  0  0  0
    3.1751    1.2958    0.2488 N   0  0  0  0  0  0  0  0  0  0  0  0
    3.9407    0.2155    0.4318 C   0  0  0  0  0  0  0  0  0  0  0  0
    5.1768    0.3116    0.8655 N   0  0  0  0  0  0  0  0  0  0  0  0
    3.4074   -0.9950    0.1576 N   0  0  0  0  0  0  0  0  0  0  0  0
    2.1678   -1.1031   -0.2789 N   0  0  0  0  0  0  0  0  0  0  0  0
   -0.0929    2.2991    0.3359 H   0  0  0  0  0  0  0  0  0  0  0  0
   -1.6680    2.0142    1.1006 H   0  0  0  0  0  0  0  0  0  0  0  0
   -0.3226    0.9922    1.6386 H   0  0  0  0  0  0  0  0  0  0  0  0
   -1.7266    1.0511   -1.0880 H   0  0  0  0  0  0  0  0  0  0  0  0
   -2.1716   -1.2753   -0.6306 H   0  0  0  0  0  0  0  0  0  0  0  0
   -1.3845   -1.1691    1.0058 H   0  0  0  0  0  0  0  0  0  0  0  0
   -3.9100    0.3104   -0.0027 H   0  0  0  0  0  0  0  0  0  0  0  0
   -3.1554    0.6208    1.5985 H   0  0  0  0  0  0  0  0  0  0  0  0
   -4.8298   -0.9157    1.5825 H   0  0  0  0  0  0  0  0  0  0  0  0
   -0.5345   -1.9074   -1.8770 H   0  0  0  0  0  0  0  0  0  0  0  0
   -0.8493   -0.3751   -2.8157 H   0  0  0  0  0  0  0  0  0  0  0  0
    0.7848   -1.0471   -2.7092 H   0  0  0  0  0  0  0  0  0  0  0  0
    5.6144    1.2246    1.0850 H   0  0  0  0  0  0  0  0  0  0  0  0
    4.0273   -1.8311    0.3123 H   0  0  0  0  0  0  0  0  0  0  0  0
  1  2  1  0
  2  3  1  0
  3  4  1  0
  4  5  1  0
  2  6  1  0
  6  7  1  0
  6  8  1  0
  8  9  1  0
  9 10  2  0
 10 11  1  0
 11 12  2  3
 11 13  1  0
 13 14  1  0
 14  8  2  0
  1 15  1  0
  1 16  1  0
  1 17  1  0
  2 18  1  6
  3 19  1  0
  3 20  1  0
  4 21  1  0
  4 22  1  0
  5 23  1  0
  7 24  1  0
  7 25  1  0
  7 26  1  0
 12 27  1  0
 13 28  1  0
M  END
$$$$

     RDKit          3D

 28 28  0  0  0  0  0  0  0  0999 V2000
   -2.1724   -1.7756   -0.1824 C   0  0  0  0  0  0  0  0  0  0  0  0
   -1.5433   -0.4040    0.1849 C   0  0  2  0  0  0  0  0  0  0  0  0
   -1.6430    0.4191   -1.0266 C   0  0  0  0  0  0  0  0  0  0  0  0
   -1.1259    1.8151   -0.9671 C   0  0  0  0  0  0  0  0  0  0  0  0
   -1.7756    2.5794    0.0157 O   0  0  0  0  0  0  0  0  0  0  0  0
   -0.2752   -0.6916    0.7378 N   0  0  0  0  0  0  0  0  0  0  0  0
   -0.2982   -1.5559    1.9424 C   0  0  0  0  0  0  0  0  0  0  0  0
    1.0076   -0.2876    0.3352 C   0  0  0  0  0  0  0  0  0  0  0  0
    1.5897   -0.9300   -0.6916 N   0  0  0  0  0  0  0  0  0  0  0  0
    2.8025   -0.6301   -1.1213 N   0  0  0  0  0  0  0  0  0  0  0  0
    3.5230    0.3507   -0.5375 C   0  0  0  0  0  0  0  0  0  0  0  0
    4.7127    0.6559   -0.9470 N   0  0  0  0  0  0  0  0  0  0  0  0
    2.9531    1.0014    0.4908 N   0  0  0  0  0  0  0  0  0  0  0  0
    1.7371    0.6859    0.9054 N   0  0  0  0  0  0  0  0  0  0  0  0
   -1.8421   -2.0686   -1.2045 H   0  0  0  0  0  0  0  0  0  0  0  0
   -1.8496   -2.4886    0.5769 H   0  0  0  0  0  0  0  0  0  0  0  0
   -3.2629   -1.6471   -0.1582 H   0  0  0  0  0  0  0  0  0  0  0  0
   -2.2001    0.0161    0.9784 H   0  0  0  0  0  0  0  0  0  0  0  0
   -2.7493    0.5115   -1.2688 H   0  0  0  0  0  0  0  0  0  0  0  0
   -1.2572   -0.1351   -1.9333 H   0  0  0  0  0  0  0  0  0  0  0  0
   -1.3926    2.3331   -1.9328 H   0  0  0  0  0  0  0  0  0  0  0  0
   -0.0578    1.8527   -0.7692 H   0  0  0  0  0  0  0  0  0  0  0  0
   -2.7743    2.4681   -0.0571 H   0  0  0  0  0  0  0  0  0  0  0  0
    0.3812   -1.0249    2.6732 H   0  0  0  0  0  0  0  0  0  0  0  0
   -1.2942   -1.6579    2.3703 H   0  0  0  0  0  0  0  0  0  0  0  0
    0.0859   -2.5691    1.6896 H   0  0  0  0  0  0  0  0  0  0  0  0
    5.2169    1.4161   -0.4615 H   0  0  0  0  0  0  0  0  0  0  0  0
    3.5039    1.7610    0.9417 H   0  0  0  0  0  0  0  0  0  0  0  0
  1  2  1  0
  2  3  1  0
  3  4  1  0
  4  5  1  0
  2  6  1  0
  6  7  1  0
  6  8  1  0
  8  9  1  0
  9 10  2  0
 10 11  1  0
 11 12  2  3
 11 13  1  0
 13 14  1  0
 14  8  2  0
  1 15  1  0
  1 16  1  0
  1 17  1  0
  2 18  1  1
  3 19  1  0
  3 20  1  0
  4 21  1  0
  4 22  1  0
  5 23  1  0
  7 24  1  0
  7 25  1  0
  7 26  1  0
 12 27  1  0
 13 28  1  0
M  END
$$$$

     RDKit          3D

 28 28  0  0  0  0  0  0  0  0999 V2000
   -1.7039   -0.8552    1.3584 C   0  0  0  0  0  0  0  0  0  0  0  0
   -0.9451    0.0373    0.3953 C   0  0  2  0  0  0  0  0  0  0  0  0
   -1.9115    0.6178   -0.6145 C   0  0  0  0  0  0  0  0  0  0  0  0
   -2.9647    1.4303    0.1195 C   0  0  0  0  0  0  0  0  0  0  0  0
   -3.8793    1.9860   -0.7721 O   0  0  0  0  0  0  0  0  0  0  0  0
    0.1138   -0.6643   -0.2864 N   0  0  0  0  0  0  0  0  0  0  0  0
   -0.2368   -1.8088   -1.1060 C   0  0  0  0  0  0  0  0  0  0  0  0
    1.4767   -0.2479   -0.1620 C   0  0  0  0  0  0  0  0  0  0  0  0
    2.0356    0.6425   -0.9970 N   0  0  0  0  0  0  0  0  0  0  0  0
    3.3015    0.9944   -0.8386 N   0  0  0  0  0  0  0  0  0  0  0  0
    4.0310    0.4719    0.1456 C   0  0  0  0  0  0  0  0  0  0  0  0
    5.2769    0.8492    0.2635 N   0  0  0  0  0  0  0  0  0  0  0  0
    3.5004   -0.4193    0.9949 N   0  0  0  0  0  0  0  0  0  0  0  0
    2.2440   -0.7589    0.8258 N   0  0  0  0  0  0  0  0  0  0  0  0
   -2.6163   -1.2694    0.8610 H   0  0  0  0  0  0  0  0  0  0  0  0
   -1.0973   -1.7384    1.6687 H   0  0  0  0  0  0  0  0  0  0  0  0
   -1.9489   -0.2943    2.2767 H   0  0  0  0  0  0  0  0  0  0  0  0
   -0.5188    0.9094    0.9692 H   0  0  0  0  0  0  0  0  0  0  0  0
   -2.3886   -0.2288   -1.1360 H   0  0  0  0  0  0  0  0  0  0  0  0
   -1.3445    1.2429   -1.3202 H   0  0  0  0  0  0  0  0  0  0  0  0
   -2.5222    2.2631    0.6853 H   0  0  0  0  0  0  0  0  0  0  0  0
   -3.4676    0.7517    0.8497 H   0  0  0  0  0  0  0  0  0  0  0  0
   -3.5286    2.8414   -1.0877 H   0  0  0  0  0  0  0  0  0  0  0  0
   -1.0445   -1.6034   -1.8173 H   0  0  0  0  0  0  0  0  0  0  0  0
   -0.4855   -2.6348   -0.4001 H   0  0  0  0  0  0  0  0  0  0  0  0
    0.6510   -2.1691   -1.6780 H   0  0  0  0  0  0  0  0  0  0  0  0
    5.8752    0.4524    1.0316 H   0  0  0  0  0  0  0  0  0  0  0  0
    4.0978   -0.7974    1.7397 H   0  0  0  0  0  0  0  0  0  0  0  0
  1  2  1  0
  2  3  1  0
  3  4  1  0
  4  5  1  0
  2  6  1  0
  6  7  1  0
  6  8  1  0
  8  9  1  0
  9 10  2  0
 10 11  1  0
 11 12  2  3
 11 13  1  0
 13 14  1  0
 14  8  2  0
  1 15  1  0
  1 16  1  0
  1 17  1  0
  2 18  1  1
  3 19  1  0
  3 20  1  0
  4 21  1  0
  4 22  1  0
  5 23  1  0
  7 24  1  0
  7 25  1  0
  7 26  1  0
 12 27  1  0
 13 28  1  0
M  END
$$$$

     RDKit          3D

 28 28  0  0  0  0  0  0  0  0999 V2000
   -1.5268   -1.9714    0.1693 C   0  0  0  0  0  0  0  0  0  0  0  0
   -0.9094   -0.6353    0.3416 C   0  0  2  0  0  0  0  0  0  0  0  0
   -1.7919    0.5441    0.3419 C   0  0  0  0  0  0  0  0  0  0  0  0
   -2.8510    0.6234    1.3771 C   0  0  0  0  0  0  0  0  0  0  0  0
   -3.5977    1.8126    1.2347 O   0  0  0  0  0  0  0  0  0  0  0  0
    0.0632   -0.4511   -0.7271 N   0  0  0  0  0  0  0  0  0  0  0  0
   -0.2295   -0.6169   -2.1235 C   0  0  0  0  0  0  0  0  0  0  0  0
    1.3915   -0.0723   -0.3782 C   0  0  0  0  0  0  0  0  0  0  0  0
    1.4819    1.1690    0.1885 N   0  0  0  0  0  0  0  0  0  0  0  0
    2.6344    1.6614    0.5405 N   0  0  0  0  0  0  0  0  0  0  0  0
    3.7421    0.9175    0.3310 C   0  0  0  0  0  0  0  0  0  0  0  0
    4.8769    1.4242    0.6767 N   0  0  0  0  0  0  0  0  0  0  0  0
    3.6405   -0.2977   -0.2261 N   0  0  0  0  0  0  0  0  0  0  0  0
    2.4657   -0.8192   -0.5920 N   0  0  0  0  0  0  0  0  0  0  0  0
   -0.7811   -2.7428    0.4510 H   0  0  0  0  0  0  0  0  0  0  0  0
   -2.4224   -2.1508    0.7859 H   0  0  0  0  0  0  0  0  0  0  0  0
   -1.7772   -2.1871   -0.9162 H   0  0  0  0  0  0  0  0  0  0  0  0
   -0.3621   -0.6588    1.3135 H   0  0  0  0  0  0  0  0  0  0  0  0
   -1.1232    1.4451    0.5018 H   0  0  0  0  0  0  0  0  0  0  0  0
   -2.2617    0.7487   -0.6588 H   0  0  0  0  0  0  0  0  0  0  0  0
   -2.5227    0.5824    2.4123 H   0  0  0  0  0  0  0  0  0  0  0  0
   -3.6117   -0.1847    1.1850 H   0  0  0  0  0  0  0  0  0  0  0  0
   -3.0712    2.4696    0.7056 H   0  0  0  0  0  0  0  0  0  0  0  0
   -1.3132   -0.6179   -2.3543 H   0  0  0  0  0  0  0  0  0  0  0  0
    0.2630    0.1230   -2.7888 H   0  0  0  0  0  0  0  0  0  0  0  0
    0.1569   -1.6161   -2.4997 H   0  0  0  0  0  0  0  0  0  0  0  0
    4.9501    2.3664    1.1001 H   0  0  0  0  0  0  0  0  0  0  0  0
    4.4867   -0.8653   -0.3918 H   0  0  0  0  0  0  0  0  0  0  0  0
  1  2  1  0
  2  3  1  0
  3  4  1  0
  4  5  1  0
  2  6  1  0
  6  7  1  0
  6  8  1  0
  8  9  1  0
  9 10  2  0
 10 11  1  0
 11 12  2  3
 11 13  1  0
 13 14  1  0
 14  8  2  0
  1 15  1  0
  1 16  1  0
  1 17  1  0
  2 18  1  1
  3 19  1  0
  3 20  1  0
  4 21  1  0
  4 22  1  0
  5 23  1  0
  7 24  1  0
  7 25  1  0
  7 26  1  0
 12 27  1  0
 13 28  1  0
M  END
$$$$

     RDKit          3D

 28 28  0  0  0  0  0  0  0  0999 V2000
   -1.7159   -1.7414   -1.2364 C   0  0  0  0  0  0  0  0  0  0  0  0
   -1.5181   -0.7378   -0.1208 C   0  0  2  0  0  0  0  0  0  0  0  0
   -1.8912    0.6217   -0.5698 C   0  0  0  0  0  0  0  0  0  0  0  0
   -1.7445    1.6751    0.5051 C   0  0  0  0  0  0  0  0  0  0  0  0
   -2.1145    2.9246    0.0273 O   0  0  0  0  0  0  0  0  0  0  0  0
   -0.2499   -0.9227    0.4904 N   0  0  0  0  0  0  0  0  0  0  0  0
   -0.1231   -1.9913    1.4942 C   0  0  0  0  0  0  0  0  0  0  0  0
    0.9254   -0.2054    0.1644 C   0  0  0  0  0  0  0  0  0  0  0  0
    1.0240    0.6678   -0.8643 N   0  0  0  0  0  0  0  0  0  0  0  0
    2.1630    1.3105   -1.1208 N   0  0  0  0  0  0  0  0  0  0  0  0
    3.2682    1.1272   -0.3760 C   0  0  0  0  0  0  0  0  0  0  0  0
    4.3756    1.7443   -0.6214 N   0  0  0  0  0  0  0  0  0  0  0  0
    3.1896    0.2720    0.6407 N   0  0  0  0  0  0  0  0  0  0  0  0
    2.0720   -0.3500    0.8808 N   0  0  0  0  0  0  0  0  0  0  0  0
   -2.7884   -1.9808   -1.3297 H   0  0  0  0  0  0  0  0  0  0  0  0
   -1.3044   -1.3357   -2.2064 H   0  0  0  0  0  0  0  0  0  0  0  0
   -1.1834   -2.6898   -0.9631 H   0  0  0  0  0  0  0  0  0  0  0  0
   -2.3236   -1.0255    0.6403 H   0  0  0  0  0  0  0  0  0  0  0  0
   -2.9671    0.6031   -0.8485 H   0  0  0  0  0  0  0  0  0  0  0  0
   -1.3320    0.9310   -1.4811 H   0  0  0  0  0  0  0  0  0  0  0  0
   -0.7379    1.7070    0.9112 H   0  0  0  0  0  0  0  0  0  0  0  0
   -2.4487    1.4631    1.3635 H   0  0  0  0  0  0  0  0  0  0  0  0
   -1.6572    3.0682   -0.8248 H   0  0  0  0  0  0  0  0  0  0  0  0
   -1.0382   -2.5800    1.5968 H   0  0  0  0  0  0  0  0  0  0  0  0
    0.1682   -1.5743    2.4770 H   0  0  0  0  0  0  0  0  0  0  0  0
    0.7138   -2.6488    1.1663 H   0  0  0  0  0  0  0  0  0  0  0  0
    5.1987    1.5493    0.0082 H   0  0  0  0  0  0  0  0  0  0  0  0
    4.0396    0.1185    1.2350 H   0  0  0  0  0  0  0  0  0  0  0  0
  1  2  1  0
  2  3  1  0
  3  4  1  0
  4  5  1  0
  2  6  1  0
  6  7  1  0
  6  8  1  0
  8  9  1  0
  9 10  2  0
 10 11  1  0
 11 12  2  3
 11 13  1  0
 13 14  1  0
 14  8  2  0
  1 15  1  0
  1 16  1  0
  1 17  1  0
  2 18  1  1
  3 19  1  0
  3 20  1  0
  4 21  1  0
  4 22  1  0
  5 23  1  0
  7 24  1  0
  7 25  1  0
  7 26  1  0
 12 27  1  0
 13 28  1  0
M  END
$$$$

     RDKit          3D

 28 28  0  0  0  0  0  0  0  0999 V2000
   -1.7575   -1.3865   -1.2170 C   0  0  0  0  0  0  0  0  0  0  0  0
   -1.3697   -0.8700    0.1590 C   0  0  2  0  0  0  0  0  0  0  0  0
   -1.9641    0.4077    0.5581 C   0  0  0  0  0  0  0  0  0  0  0  0
   -1.7110    1.6155   -0.2673 C   0  0  0  0  0  0  0  0  0  0  0  0
   -2.4013    2.7342    0.2800 O   0  0  0  0  0  0  0  0  0  0  0  0
    0.0059   -1.1176    0.3386 N   0  0  0  0  0  0  0  0  0  0  0  0
    0.3873   -2.5434    0.5212 C   0  0  0  0  0  0  0  0  0  0  0  0
    1.0960   -0.2283    0.3608 C   0  0  0  0  0  0  0  0  0  0  0  0
    1.4930    0.4134   -0.7490 N   0  0  0  0  0  0  0  0  0  0  0  0
    2.5475    1.2369   -0.7380 N   0  0  0  0  0  0  0  0  0  0  0  0
    3.2433    1.4403    0.3954 C   0  0  0  0  0  0  0  0  0  0  0  0
    4.2763    2.2564    0.4366 N   0  0  0  0  0  0  0  0  0  0  0  0
    2.8495    0.7954    1.5048 N   0  0  0  0  0  0  0  0  0  0  0  0
    1.8049   -0.0143    1.4913 N   0  0  0  0  0  0  0  0  0  0  0  0
   -1.1720   -0.9020   -2.0273 H   0  0  0  0  0  0  0  0  0  0  0  0
   -1.4289   -2.4601   -1.2354 H   0  0  0  0  0  0  0  0  0  0  0  0
   -2.8383   -1.4119   -1.3720 H   0  0  0  0  0  0  0  0  0  0  0  0
   -1.8916   -1.6493    0.8465 H   0  0  0  0  0  0  0  0  0  0  0  0
   -1.7398    0.6037    1.6406 H   0  0  0  0  0  0  0  0  0  0  0  0
   -3.1007    0.2823    0.5634 H   0  0  0  0  0  0  0  0  0  0  0  0
   -0.6513    1.9247   -0.2130 H   0  0  0  0  0  0  0  0  0  0  0  0
   -2.0354    1.5619   -1.3076 H   0  0  0  0  0  0  0  0  0  0  0  0
   -3.3686    2.6096    0.2678 H   0  0  0  0  0  0  0  0  0  0  0  0
    1.2514   -2.5686    1.2573 H   0  0  0  0  0  0  0  0  0  0  0  0
    0.7429   -2.9854   -0.4040 H   0  0  0  0  0  0  0  0  0  0  0  0
   -0.4302   -3.0545    1.0495 H   0  0  0  0  0  0  0  0  0  0  0  0
    4.7824    2.3758    1.3345 H   0  0  0  0  0  0  0  0  0  0  0  0
    3.3802    0.9341    2.3759 H   0  0  0  0  0  0  0  0  0  0  0  0
  1  2  1  0
  2  3  1  0
  3  4  1  0
  4  5  1  0
  2  6  1  0
  6  7  1  0
  6  8  1  0
  8  9  1  0
  9 10  2  0
 10 11  1  0
 11 12  2  3
 11 13  1  0
 13 14  1  0
 14  8  2  0
  1 15  1  0
  1 16  1  0
  1 17  1  0
  2 18  1  1
  3 19  1  0
  3 20  1  0
  4 21  1  0
  4 22  1  0
  5 23  1  0
  7 24  1  0
  7 25  1  0
  7 26  1  0
 12 27  1  0
 13 28  1  0
M  END
$$$$

     RDKit          3D

 28 28  0  0  0  0  0  0  0  0999 V2000
   -1.6620    0.0651    1.5592 C   0  0  0  0  0  0  0  0  0  0  0  0
   -1.0406    0.1942    0.1635 C   0  0  2  0  0  0  0  0  0  0  0  0
   -2.0870   -0.3291   -0.7993 C   0  0  0  0  0  0  0  0  0  0  0  0
   -3.3372    0.4712   -0.6600 C   0  0  0  0  0  0  0  0  0  0  0  0
   -3.2167    1.8177   -0.9338 O   0  0  0  0  0  0  0  0  0  0  0  0
    0.1316   -0.6402    0.1824 N   0  0  0  0  0  0  0  0  0  0  0  0
   -0.0321   -2.0694    0.4606 C   0  0  0  0  0  0  0  0  0  0  0  0
    1.4534   -0.1847   -0.0473 C   0  0  0  0  0  0  0  0  0  0  0  0
    2.0553   -0.2921   -1.2452 N   0  0  0  0  0  0  0  0  0  0  0  0
    3.2906    0.1279   -1.4644 N   0  0  0  0  0  0  0  0  0  0  0  0
    4.0292    0.6957   -0.4905 C   0  0  0  0  0  0  0  0  0  0  0  0
    5.2383    1.1001   -0.7215 N   0  0  0  0  0  0  0  0  0  0  0  0
    3.4441    0.8134    0.7154 N   0  0  0  0  0  0  0  0  0  0  0  0
    2.1993    0.3866    0.9275 N   0  0  0  0  0  0  0  0  0  0  0  0
   -0.8848   -0.0396    2.3145 H   0  0  0  0  0  0  0  0  0  0  0  0
   -2.2318    0.9988    1.7284 H   0  0  0  0  0  0  0  0  0  0  0  0
   -2.3481   -0.7843    1.6250 H   0  0  0  0  0  0  0  0  0  0  0  0
   -0.7712    1.2213   -0.0799 H   0  0  0  0  0  0  0  0  0  0  0  0
   -1.6567   -0.3030   -1.8275 H   0  0  0  0  0  0  0  0  0  0  0  0
   -2.3089   -1.3763   -0.5109 H   0  0  0  0  0  0  0  0  0  0  0  0
   -4.1358    0.0479   -1.3162 H   0  0  0  0  0  0  0  0  0  0  0  0
   -3.6795    0.3603    0.3968 H   0  0  0  0  0  0  0  0  0  0  0  0
   -2.3249    2.1778   -0.9131 H   0  0  0  0  0  0  0  0  0  0  0  0
    0.7185   -2.2853    1.2770 H   0  0  0  0  0  0  0  0  0  0  0  0
    0.3645   -2.6210   -0.4354 H   0  0  0  0  0  0  0  0  0  0  0  0
   -1.0458   -2.3405    0.7478 H   0  0  0  0  0  0  0  0  0  0  0  0
    5.8445    1.5365   -0.0253 H   0  0  0  0  0  0  0  0  0  0  0  0
    3.9938    1.2509    1.4825 H   0  0  0  0  0  0  0  0  0  0  0  0
  1  2  1  0
  2  3  1  0
  3  4  1  0
  4  5  1  0
  2  6  1  0
  6  7  1  0
  6  8  1  0
  8  9  1  0
  9 10  2  0
 10 11  1  0
 11 12  2  3
 11 13  1  0
 13 14  1  0
 14  8  2  0
  1 15  1  0
  1 16  1  0
  1 17  1  0
  2 18  1  6
  3 19  1  0
  3 20  1  0
  4 21  1  0
  4 22  1  0
  5 23  1  0
  7 24  1  0
  7 25  1  0
  7 26  1  0
 12 27  1  0
 13 28  1  0
M  END
$$$$

     RDKit          3D

 28 28  0  0  0  0  0  0  0  0999 V2000
   -1.9237    1.0626   -1.3066 C   0  0  0  0  0  0  0  0  0  0  0  0
   -1.1316   -0.1708   -0.9055 C   0  0  2  0  0  0  0  0  0  0  0  0
   -1.2279   -0.3743    0.5867 C   0  0  0  0  0  0  0  0  0  0  0  0
   -2.6440   -0.5710    1.0503 C   0  0  0  0  0  0  0  0  0  0  0  0
   -2.7217   -0.7542    2.4250 O   0  0  0  0  0  0  0  0  0  0  0  0
    0.2708    0.0340   -1.2986 N   0  0  0  0  0  0  0  0  0  0  0  0
    0.6445    0.2782   -2.6630 C   0  0  0  0  0  0  0  0  0  0  0  0
    1.2751   -0.0302   -0.3028 C   0  0  0  0  0  0  0  0  0  0  0  0
    1.5228    1.0586    0.4367 N   0  0  0  0  0  0  0  0  0  0  0  0
    2.4480    1.0808    1.3898 N   0  0  0  0  0  0  0  0  0  0  0  0
    3.1550   -0.0347    1.6106 C   0  0  0  0  0  0  0  0  0  0  0  0
    4.0649   -0.0728    2.5303 N   0  0  0  0  0  0  0  0  0  0  0  0
    2.9037   -1.1259    0.8648 N   0  0  0  0  0  0  0  0  0  0  0  0
    1.9815   -1.1396   -0.0809 N   0  0  0  0  0  0  0  0  0  0  0  0
   -1.5188    1.9380   -0.7366 H   0  0  0  0  0  0  0  0  0  0  0  0
   -1.7922    1.2210   -2.4163 H   0  0  0  0  0  0  0  0  0  0  0  0
   -2.9930    0.8918   -1.1169 H   0  0  0  0  0  0  0  0  0  0  0  0
   -1.5362   -1.0398   -1.4241 H   0  0  0  0  0  0  0  0  0  0  0  0
   -0.6138   -1.2752    0.8750 H   0  0  0  0  0  0  0  0  0  0  0  0
   -0.7712    0.4966    1.0976 H   0  0  0  0  0  0  0  0  0  0  0  0
   -3.2429    0.3174    0.7946 H   0  0  0  0  0  0  0  0  0  0  0  0
   -3.0726   -1.4992    0.5743 H   0  0  0  0  0  0  0  0  0  0  0  0
   -3.2253   -0.0236    2.8522 H   0  0  0  0  0  0  0  0  0  0  0  0
    1.5750   -0.3277   -2.8656 H   0  0  0  0  0  0  0  0  0  0  0  0
    0.9455    1.3357   -2.7258 H   0  0  0  0  0  0  0  0  0  0  0  0
   -0.0999   -0.0456   -3.4049 H   0  0  0  0  0  0  0  0  0  0  0  0
    4.2692    0.7550    3.1191 H   0  0  0  0  0  0  0  0  0  0  0  0
    3.4586   -1.9851    1.0405 H   0  0  0  0  0  0  0  0  0  0  0  0
  1  2  1  0
  2  3  1  0
  3  4  1  0
  4  5  1  0
  2  6  1  0
  6  7  1  0
  6  8  1  0
  8  9  1  0
  9 10  2  0
 10 11  1  0
 11 12  2  3
 11 13  1  0
 13 14  1  0
 14  8  2  0
  1 15  1  0
  1 16  1  0
  1 17  1  0
  2 18  1  6
  3 19  1  0
  3 20  1  0
  4 21  1  0
  4 22  1  0
  5 23  1  0
  7 24  1  0
  7 25  1  0
  7 26  1  0
 12 27  1  0
 13 28  1  0
M  END
$$$$
