
     RDKit          3D

 28 29  0  0  0  0  0  0  0  0999 V2000
   -2.1200   -0.6311   -1.3336 C   0  0  0  0  0  0  0  0  0  0  0  0
   -1.9909    0.1393   -0.0872 C   0  0  0  0  0  0  0  0  0  0  0  0
   -0.8287    0.3558    0.6226 C   0  0  0  0  0  0  0  0  0  0  0  0
    0.4789   -0.0832    0.3533 N   0  0  0  0  0  0  0  0  0  0  0  0
    1.4299    0.0793   -0.7152 C   0  0  0  0  0  0  0  0  0  0  0  0
    2.5255   -0.0515    0.3288 C   0  0  0  0  0  0  0  0  0  0  0  0
    2.8553    1.1101    0.9874 O   0  0  0  0  0  0  0  0  0  0  0  0
    3.6738   -0.8631   -0.2032 C   0  0  0  0  0  0  0  0  0  0  0  0
    4.3681   -0.0388   -1.1156 O   0  0  0  0  0  0  0  0  0  0  0  0
    1.4528   -0.8957    1.0321 C   0  0  0  0  0  0  0  0  0  0  0  0
   -1.2100    1.1151    1.6888 N   0  0  0  0  0  0  0  0  0  0  0  0
   -2.5102    1.3478    1.6376 N   0  0  0  0  0  0  0  0  0  0  0  0
   -2.9778    0.7594    0.5677 N   0  0  0  0  0  0  0  0  0  0  0  0
   -4.3933    0.8060    0.1886 C   0  0  0  0  0  0  0  0  0  0  0  0
   -1.1780   -0.7951   -1.8588 H   0  0  0  0  0  0  0  0  0  0  0  0
   -2.7915   -0.0535   -2.0268 H   0  0  0  0  0  0  0  0  0  0  0  0
   -2.6458   -1.6144   -1.1634 H   0  0  0  0  0  0  0  0  0  0  0  0
    1.4053    1.0532   -1.2397 H   0  0  0  0  0  0  0  0  0  0  0  0
    1.4344   -0.8166   -1.3683 H   0  0  0  0  0  0  0  0  0  0  0  0
    2.2490    1.3695    1.7099 H   0  0  0  0  0  0  0  0  0  0  0  0
    4.3987   -1.1687    0.5511 H   0  0  0  0  0  0  0  0  0  0  0  0
    3.2734   -1.7579   -0.6966 H   0  0  0  0  0  0  0  0  0  0  0  0
    4.3751    0.9026   -0.8071 H   0  0  0  0  0  0  0  0  0  0  0  0
    1.4764   -0.8284    2.1267 H   0  0  0  0  0  0  0  0  0  0  0  0
    1.5279   -1.9305    0.6170 H   0  0  0  0  0  0  0  0  0  0  0  0
   -5.0264    1.0673    1.0536 H   0  0  0  0  0  0  0  0  0  0  0  0
   -4.5326    1.5814   -0.5893 H   0  0  0  0  0  0  0  0  0  0  0  0
   -4.7195   -0.1587   -0.2602 H   0  0  0  0  0  0  0  0  0  0  0  0
  1  2  1  0
  2  3  2  0
  3  4  1  0
  4  5  1  0
  5  6  1  0
  6  7  1  0
  6  8  1  0
  8  9  1  0
  6 10  1  0
  3 11  1  0
 11 12  2  0
 12 13  1  0
 13 14  1  0
 13  2  1  0
 10  4  1  0
  1 15  1  0
  1 16  1  0
  1 17  1  0
  5 18  1  0
  5 19  1  0
  7 20  1  0
  8 21  1  0
  8 22  1  0
  9 23  1  0
 10 24  1  0
 10 25  1  0
 14 26  1  0
 14 27  1  0
 14 28  1  0
M  END
$$$$

     RDKit          3D

 28 29  0  0  0  0  0  0  0  0999 V2000
    2.3077   -1.1351    0.2922 C   0  0  0  0  0  0  0  0  0  0  0  0
    1.8224    0.2562    0.0351 C   0  0  0  0  0  0  0  0  0  0  0  0
    0.5176    0.6950    0.0937 C   0  0  0  0  0  0  0  0  0  0  0  0
   -0.5934   -0.0909    0.4069 N   0  0  0  0  0  0  0  0  0  0  0  0
   -1.1808   -1.2891   -0.2124 C   0  0  0  0  0  0  0  0  0  0  0  0
   -2.5242   -0.7582    0.2474 C   0  0  0  0  0  0  0  0  0  0  0  0
   -3.4458   -1.6979    0.6306 O   0  0  0  0  0  0  0  0  0  0  0  0
   -3.0646    0.3864   -0.5844 C   0  0  0  0  0  0  0  0  0  0  0  0
   -4.0288    1.0293    0.1801 O   0  0  0  0  0  0  0  0  0  0  0  0
   -1.6754   -0.1815    1.3887 C   0  0  0  0  0  0  0  0  0  0  0  0
    0.5933    2.0205   -0.2165 N   0  0  0  0  0  0  0  0  0  0  0  0
    1.8592    2.3347   -0.4413 N   0  0  0  0  0  0  0  0  0  0  0  0
    2.6401    1.2830   -0.2972 N   0  0  0  0  0  0  0  0  0  0  0  0
    4.0842    1.1882   -0.4508 C   0  0  0  0  0  0  0  0  0  0  0  0
    2.8137   -1.5683   -0.5957 H   0  0  0  0  0  0  0  0  0  0  0  0
    3.1163   -1.0638    1.0763 H   0  0  0  0  0  0  0  0  0  0  0  0
    1.4604   -1.7444    0.6513 H   0  0  0  0  0  0  0  0  0  0  0  0
   -1.0384   -1.3491   -1.2906 H   0  0  0  0  0  0  0  0  0  0  0  0
   -0.9026   -2.1619    0.3893 H   0  0  0  0  0  0  0  0  0  0  0  0
   -3.0704   -2.5986    0.4526 H   0  0  0  0  0  0  0  0  0  0  0  0
   -2.2564    1.1212   -0.7651 H   0  0  0  0  0  0  0  0  0  0  0  0
   -3.4390    0.0718   -1.5655 H   0  0  0  0  0  0  0  0  0  0  0  0
   -3.7413    1.9519    0.4620 H   0  0  0  0  0  0  0  0  0  0  0  0
   -2.0510    0.7781    1.7591 H   0  0  0  0  0  0  0  0  0  0  0  0
   -1.4076   -0.9338    2.1597 H   0  0  0  0  0  0  0  0  0  0  0  0
    4.5166    0.9520    0.5436 H   0  0  0  0  0  0  0  0  0  0  0  0
    4.2656    0.3469   -1.1655 H   0  0  0  0  0  0  0  0  0  0  0  0
    4.4228    2.1573   -0.8449 H   0  0  0  0  0  0  0  0  0  0  0  0
  1  2  1  0
  2  3  2  0
  3  4  1  0
  4  5  1  0
  5  6  1  0
  6  7  1  0
  6  8  1  0
  8  9  1  0
  6 10  1  0
  3 11  1  0
 11 12  2  0
 12 13  1  0
 13 14  1  0
 13  2  1  0
 10  4  1  0
  1 15  1  0
  1 16  1  0
  1 17  1  0
  5 18  1  0
  5 19  1  0
  7 20  1  0
  8 21  1  0
  8 22  1  0
  9 23  1  0
 10 24  1  0
 10 25  1  0
 14 26  1  0
 14 27  1  0
 14 28  1  0
M  END
$$$$

     RDKit          3D

 28 29  0  0  0  0  0  0  0  0999 V2000
   -2.1282   -1.0817    0.8222 C   0  0  0  0  0  0  0  0  0  0  0  0
   -2.0229    0.0650   -0.0884 C   0  0  0  0  0  0  0  0  0  0  0  0
   -0.8466    0.6517   -0.5078 C   0  0  0  0  0  0  0  0  0  0  0  0
    0.4625    0.2543   -0.1365 N   0  0  0  0  0  0  0  0  0  0  0  0
    1.3214   -0.9088   -0.2208 C   0  0  0  0  0  0  0  0  0  0  0  0
    2.4799    0.0813   -0.3615 C   0  0  0  0  0  0  0  0  0  0  0  0
    2.6061    0.5418   -1.6458 O   0  0  0  0  0  0  0  0  0  0  0  0
    3.7263   -0.3132    0.3575 C   0  0  0  0  0  0  0  0  0  0  0  0
    4.4318   -1.3228   -0.2459 O   0  0  0  0  0  0  0  0  0  0  0  0
    1.5622    0.9174    0.5378 C   0  0  0  0  0  0  0  0  0  0  0  0
   -1.2372    1.6583   -1.3272 N   0  0  0  0  0  0  0  0  0  0  0  0
   -2.5601    1.6803   -1.3996 N   0  0  0  0  0  0  0  0  0  0  0  0
   -3.0754    0.7113   -0.6477 N   0  0  0  0  0  0  0  0  0  0  0  0
   -4.4720    0.3756   -0.4377 C   0  0  0  0  0  0  0  0  0  0  0  0
   -2.4408   -2.0247    0.2847 H   0  0  0  0  0  0  0  0  0  0  0  0
   -2.9524   -0.8988    1.5540 H   0  0  0  0  0  0  0  0  0  0  0  0
   -1.1712   -1.3153    1.2970 H   0  0  0  0  0  0  0  0  0  0  0  0
    1.4600   -1.4420    0.7566 H   0  0  0  0  0  0  0  0  0  0  0  0
    1.1668   -1.5653   -1.0762 H   0  0  0  0  0  0  0  0  0  0  0  0
    2.0352    1.3232   -1.8526 H   0  0  0  0  0  0  0  0  0  0  0  0
    4.3825    0.5882    0.4110 H   0  0  0  0  0  0  0  0  0  0  0  0
    3.4512   -0.5344    1.4176 H   0  0  0  0  0  0  0  0  0  0  0  0
    4.8891   -0.9435   -1.0366 H   0  0  0  0  0  0  0  0  0  0  0  0
    1.6513    1.9897    0.3728 H   0  0  0  0  0  0  0  0  0  0  0  0
    1.7140    0.5885    1.5864 H   0  0  0  0  0  0  0  0  0  0  0  0
   -4.7840   -0.2482   -1.2944 H   0  0  0  0  0  0  0  0  0  0  0  0
   -5.0772    1.3137   -0.3453 H   0  0  0  0  0  0  0  0  0  0  0  0
   -4.5719   -0.1415    0.5418 H   0  0  0  0  0  0  0  0  0  0  0  0
  1  2  1  0
  2  3  2  0
  3  4  1  0
  4  5  1  0
  5  6  1  0
  6  7  1  0
  6  8  1  0
  8  9  1  0
  6 10  1  0
  3 11  1  0
 11 12  2  0
 12 13  1  0
 13 14  1  0
 13  2  1  0
 10  4  1  0
  1 15  1  0
  1 16  1  0
  1 17  1  0
  5 18  1  0
  5 19  1  0
  7 20  1  0
  8 21  1  0
  8 22  1  0
  9 23  1  0
 10 24  1  0
 10 25  1  0
 14 26  1  0
 14 27  1  0
 14 28  1  0
M  END
$$$$

     RDKit          3D

 28 29  0  0  0  0  0  0  0  0999 V2000
    2.2334   -1.2821   -0.0305 C   0  0  0  0  0  0  0  0  0  0  0  0
    1.9982    0.1798    0.0311 C   0  0  0  0  0  0  0  0  0  0  0  0
    0.7823    0.8216    0.1282 C   0  0  0  0  0  0  0  0  0  0  0  0
   -0.4991    0.2419    0.1903 N   0  0  0  0  0  0  0  0  0  0  0  0
   -1.3757   -0.6059   -0.5719 C   0  0  0  0  0  0  0  0  0  0  0  0
   -2.3725   -0.6827    0.5375 C   0  0  0  0  0  0  0  0  0  0  0  0
   -2.4357   -1.8543    1.2526 O   0  0  0  0  0  0  0  0  0  0  0  0
   -3.7448   -0.1408    0.2257 C   0  0  0  0  0  0  0  0  0  0  0  0
   -3.6917    1.0455   -0.4982 O   0  0  0  0  0  0  0  0  0  0  0  0
   -1.5273    0.3369    1.2394 C   0  0  0  0  0  0  0  0  0  0  0  0
    1.1037    2.1465    0.1504 N   0  0  0  0  0  0  0  0  0  0  0  0
    2.4237    2.2818    0.0717 N   0  0  0  0  0  0  0  0  0  0  0  0
    2.9820    1.0888   -0.0017 N   0  0  0  0  0  0  0  0  0  0  0  0
    4.4020    0.8416   -0.0990 C   0  0  0  0  0  0  0  0  0  0  0  0
    2.7686   -1.6248    0.8948 H   0  0  0  0  0  0  0  0  0  0  0  0
    1.3278   -1.8643   -0.2075 H   0  0  0  0  0  0  0  0  0  0  0  0
    2.9852   -1.4374   -0.8578 H   0  0  0  0  0  0  0  0  0  0  0  0
   -0.9861   -1.6168   -0.8101 H   0  0  0  0  0  0  0  0  0  0  0  0
   -1.8374   -0.1443   -1.4710 H   0  0  0  0  0  0  0  0  0  0  0  0
   -3.2778   -2.3621    1.0674 H   0  0  0  0  0  0  0  0  0  0  0  0
   -4.2214    0.0815    1.2241 H   0  0  0  0  0  0  0  0  0  0  0  0
   -4.3568   -0.8983   -0.2977 H   0  0  0  0  0  0  0  0  0  0  0  0
   -3.9816    1.8333    0.0026 H   0  0  0  0  0  0  0  0  0  0  0  0
   -1.9524    1.3505    1.3370 H   0  0  0  0  0  0  0  0  0  0  0  0
   -1.0703   -0.0008    2.1882 H   0  0  0  0  0  0  0  0  0  0  0  0
    4.5894   -0.2209    0.1598 H   0  0  0  0  0  0  0  0  0  0  0  0
    4.7696    0.9834   -1.1516 H   0  0  0  0  0  0  0  0  0  0  0  0
    4.9647    1.5023    0.6036 H   0  0  0  0  0  0  0  0  0  0  0  0
  1  2  1  0
  2  3  2  0
  3  4  1  0
  4  5  1  0
  5  6  1  0
  6  7  1  0
  6  8  1  0
  8  9  1  0
  6 10  1  0
  3 11  1  0
 11 12  2  0
 12 13  1  0
 13 14  1  0
 13  2  1  0
 10  4  1  0
  1 15  1  0
  1 16  1  0
  1 17  1  0
  5 18  1  0
  5 19  1  0
  7 20  1  0
  8 21  1  0
  8 22  1  0
  9 23  1  0
 10 24  1  0
 10 25  1  0
 14 26  1  0
 14 27  1  0
 14 28  1  0
M  END
$$$$

     RDKit          3D

 28 29  0  0  0  0  0  0  0  0999 V2000
   -2.0425    1.0650   -0.6685 C   0  0  0  0  0  0  0  0  0  0  0  0
   -1.9612   -0.2347    0.0634 C   0  0  0  0  0  0  0  0  0  0  0  0
   -0.7753   -0.8936    0.4036 C   0  0  0  0  0  0  0  0  0  0  0  0
    0.5355   -0.4400    0.1118 N   0  0  0  0  0  0  0  0  0  0  0  0
    1.8666   -0.9482    0.3639 C   0  0  0  0  0  0  0  0  0  0  0  0
    2.5051    0.3048   -0.1792 C   0  0  0  0  0  0  0  0  0  0  0  0
    3.3661    0.1020   -1.2559 O   0  0  0  0  0  0  0  0  0  0  0  0
    3.1360    1.1851    0.8706 C   0  0  0  0  0  0  0  0  0  0  0  0
    4.2928    0.6618    1.3896 O   0  0  0  0  0  0  0  0  0  0  0  0
    1.0906    0.6964   -0.5458 C   0  0  0  0  0  0  0  0  0  0  0  0
   -1.1535   -2.0185    1.0493 N   0  0  0  0  0  0  0  0  0  0  0  0
   -2.4707   -2.0103    1.0803 N   0  0  0  0  0  0  0  0  0  0  0  0
   -2.9848   -0.9557    0.4984 N   0  0  0  0  0  0  0  0  0  0  0  0
   -4.4138   -0.6846    0.3839 C   0  0  0  0  0  0  0  0  0  0  0  0
   -1.8673    1.9192    0.0153 H   0  0  0  0  0  0  0  0  0  0  0  0
   -3.0712    1.1826   -1.0562 H   0  0  0  0  0  0  0  0  0  0  0  0
   -1.3520    1.1300   -1.5113 H   0  0  0  0  0  0  0  0  0  0  0  0
    2.1171   -1.8203   -0.2923 H   0  0  0  0  0  0  0  0  0  0  0  0
    2.0579   -1.1098    1.4467 H   0  0  0  0  0  0  0  0  0  0  0  0
    3.4555   -0.8829   -1.4242 H   0  0  0  0  0  0  0  0  0  0  0  0
    3.3827    2.1562    0.3649 H   0  0  0  0  0  0  0  0  0  0  0  0
    2.4258    1.3613    1.7061 H   0  0  0  0  0  0  0  0  0  0  0  0
    4.4179   -0.2959    1.2586 H   0  0  0  0  0  0  0  0  0  0  0  0
    1.0004    0.6842   -1.6603 H   0  0  0  0  0  0  0  0  0  0  0  0
    0.8647    1.6912   -0.1257 H   0  0  0  0  0  0  0  0  0  0  0  0
   -4.9922   -1.6019    0.6028 H   0  0  0  0  0  0  0  0  0  0  0  0
   -4.6943   -0.3548   -0.6392 H   0  0  0  0  0  0  0  0  0  0  0  0
   -4.7359    0.1116    1.1013 H   0  0  0  0  0  0  0  0  0  0  0  0
  1  2  1  0
  2  3  2  0
  3  4  1  0
  4  5  1  0
  5  6  1  0
  6  7  1  0
  6  8  1  0
  8  9  1  0
  6 10  1  0
  3 11  1  0
 11 12  2  0
 12 13  1  0
 13 14  1  0
 13  2  1  0
 10  4  1  0
  1 15  1  0
  1 16  1  0
  1 17  1  0
  5 18  1  0
  5 19  1  0
  7 20  1  0
  8 21  1  0
  8 22  1  0
  9 23  1  0
 10 24  1  0
 10 25  1  0
 14 26  1  0
 14 27  1  0
 14 28  1  0
M  END
$$$$

     RDKit          3D

 28 29  0  0  0  0  0  0  0  0999 V2000
   -2.0458   -1.0155    1.0941 C   0  0  0  0  0  0  0  0  0  0  0  0
   -2.0074    0.0583    0.0663 C   0  0  0  0  0  0  0  0  0  0  0  0
   -0.8958    0.6056   -0.5358 C   0  0  0  0  0  0  0  0  0  0  0  0
    0.4729    0.2538   -0.2981 N   0  0  0  0  0  0  0  0  0  0  0  0
    1.3542   -0.8814   -0.3815 C   0  0  0  0  0  0  0  0  0  0  0  0
    2.5062    0.0575   -0.5506 C   0  0  0  0  0  0  0  0  0  0  0  0
    2.7824    0.3862   -1.8614 O   0  0  0  0  0  0  0  0  0  0  0  0
    3.7186   -0.2193    0.3089 C   0  0  0  0  0  0  0  0  0  0  0  0
    4.4897   -1.2620   -0.1425 O   0  0  0  0  0  0  0  0  0  0  0  0
    1.5961    1.0391    0.1763 C   0  0  0  0  0  0  0  0  0  0  0  0
   -1.3797    1.5283   -1.3820 N   0  0  0  0  0  0  0  0  0  0  0  0
   -2.6923    1.5545   -1.3128 N   0  0  0  0  0  0  0  0  0  0  0  0
   -3.0923    0.6647   -0.4348 N   0  0  0  0  0  0  0  0  0  0  0  0
   -4.4948    0.4168   -0.0975 C   0  0  0  0  0  0  0  0  0  0  0  0
   -2.2802   -1.9833    0.5667 H   0  0  0  0  0  0  0  0  0  0  0  0
   -2.8207   -0.7972    1.8601 H   0  0  0  0  0  0  0  0  0  0  0  0
   -1.0688   -1.0907    1.5697 H   0  0  0  0  0  0  0  0  0  0  0  0
    1.2071   -1.5083   -1.2886 H   0  0  0  0  0  0  0  0  0  0  0  0
    1.3848   -1.4758    0.5560 H   0  0  0  0  0  0  0  0  0  0  0  0
    2.3489    1.2514   -2.1131 H   0  0  0  0  0  0  0  0  0  0  0  0
    4.3406    0.7133    0.2809 H   0  0  0  0  0  0  0  0  0  0  0  0
    3.4506   -0.3601    1.3745 H   0  0  0  0  0  0  0  0  0  0  0  0
    4.3061   -2.1215    0.2718 H   0  0  0  0  0  0  0  0  0  0  0  0
    1.6983    2.0308   -0.2730 H   0  0  0  0  0  0  0  0  0  0  0  0
    1.7215    0.9902    1.2698 H   0  0  0  0  0  0  0  0  0  0  0  0
   -4.8517    1.1646    0.6555 H   0  0  0  0  0  0  0  0  0  0  0  0
   -5.0932    0.5974   -1.0215 H   0  0  0  0  0  0  0  0  0  0  0  0
   -4.6554   -0.5973    0.2774 H   0  0  0  0  0  0  0  0  0  0  0  0
  1  2  1  0
  2  3  2  0
  3  4  1  0
  4  5  1  0
  5  6  1  0
  6  7  1  0
  6  8  1  0
  8  9  1  0
  6 10  1  0
  3 11  1  0
 11 12  2  0
 12 13  1  0
 13 14  1  0
 13  2  1  0
 10  4  1  0
  1 15  1  0
  1 16  1  0
  1 17  1  0
  5 18  1  0
  5 19  1  0
  7 20  1  0
  8 21  1  0
  8 22  1  0
  9 23  1  0
 10 24  1  0
 10 25  1  0
 14 26  1  0
 14 27  1  0
 14 28  1  0
M  END
$$$$

     RDKit          3D

 28 29  0  0  0  0  0  0  0  0999 V2000
   -1.8563   -0.5423    1.4491 C   0  0  0  0  0  0  0  0  0  0  0  0
   -1.9730    0.0629    0.0887 C   0  0  0  0  0  0  0  0  0  0  0  0
   -0.9305    0.3126   -0.7735 C   0  0  0  0  0  0  0  0  0  0  0  0
    0.4480    0.0631   -0.5774 N   0  0  0  0  0  0  0  0  0  0  0  0
    1.7006    0.2192   -1.2936 C   0  0  0  0  0  0  0  0  0  0  0  0
    2.3905    0.3336    0.0398 C   0  0  0  0  0  0  0  0  0  0  0  0
    2.4158    1.6098    0.5551 O   0  0  0  0  0  0  0  0  0  0  0  0
    3.7167   -0.3490    0.1620 C   0  0  0  0  0  0  0  0  0  0  0  0
    3.7434   -1.6285   -0.3391 O   0  0  0  0  0  0  0  0  0  0  0  0
    1.2078   -0.4983    0.5224 C   0  0  0  0  0  0  0  0  0  0  0  0
   -1.4854    0.8570   -1.8744 N   0  0  0  0  0  0  0  0  0  0  0  0
   -2.7932    0.9266   -1.6746 N   0  0  0  0  0  0  0  0  0  0  0  0
   -3.1297    0.4596   -0.5064 N   0  0  0  0  0  0  0  0  0  0  0  0
   -4.4169    0.3349    0.1354 C   0  0  0  0  0  0  0  0  0  0  0  0
   -1.2051   -1.4497    1.3389 H   0  0  0  0  0  0  0  0  0  0  0  0
   -2.8883   -0.8578    1.7748 H   0  0  0  0  0  0  0  0  0  0  0  0
   -1.4208    0.1502    2.1805 H   0  0  0  0  0  0  0  0  0  0  0  0
    1.9256   -0.7175   -1.8333 H   0  0  0  0  0  0  0  0  0  0  0  0
    1.7721    1.1459   -1.8978 H   0  0  0  0  0  0  0  0  0  0  0  0
    2.8367    2.2610   -0.0430 H   0  0  0  0  0  0  0  0  0  0  0  0
    4.4822    0.3135   -0.2714 H   0  0  0  0  0  0  0  0  0  0  0  0
    3.9411   -0.4267    1.2613 H   0  0  0  0  0  0  0  0  0  0  0  0
    3.6229   -1.7149   -1.2969 H   0  0  0  0  0  0  0  0  0  0  0  0
    0.8541   -0.2378    1.5318 H   0  0  0  0  0  0  0  0  0  0  0  0
    1.3996   -1.5695    0.3312 H   0  0  0  0  0  0  0  0  0  0  0  0
   -4.8889   -0.6493   -0.0280 H   0  0  0  0  0  0  0  0  0  0  0  0
   -4.3459    0.4714    1.2473 H   0  0  0  0  0  0  0  0  0  0  0  0
   -5.1229    1.1200   -0.2089 H   0  0  0  0  0  0  0  0  0  0  0  0
  1  2  1  0
  2  3  2  0
  3  4  1  0
  4  5  1  0
  5  6  1  0
  6  7  1  0
  6  8  1  0
  8  9  1  0
  6 10  1  0
  3 11  1  0
 11 12  2  0
 12 13  1  0
 13 14  1  0
 13  2  1  0
 10  4  1  0
  1 15  1  0
  1 16  1  0
  1 17  1  0
  5 18  1  0
  5 19  1  0
  7 20  1  0
  8 21  1  0
  8 22  1  0
  9 23  1  0
 10 24  1  0
 10 25  1  0
 14 26  1  0
 14 27  1  0
 14 28  1  0
M  END
$$$$

     RDKit          3D

 28 29  0  0  0  0  0  0  0  0999 V2000
    2.1690    1.2480    0.7391 C   0  0  0  0  0  0  0  0  0  0  0  0
    2.0711   -0.0438   -0.0087 C   0  0  0  0  0  0  0  0  0  0  0  0
    0.9295   -0.7348   -0.3314 C   0  0  0  0  0  0  0  0  0  0  0  0
   -0.3860   -0.3311   -0.0020 N   0  0  0  0  0  0  0  0  0  0  0  0
   -1.2901    0.7884   -0.2417 C   0  0  0  0  0  0  0  0  0  0  0  0
   -2.4126   -0.2382   -0.2254 C   0  0  0  0  0  0  0  0  0  0  0  0
   -2.4658   -0.9280   -1.4094 O   0  0  0  0  0  0  0  0  0  0  0  0
   -3.6957    0.2262    0.3698 C   0  0  0  0  0  0  0  0  0  0  0  0
   -4.3226    1.0829   -0.5356 O   0  0  0  0  0  0  0  0  0  0  0  0
   -1.4713   -0.9196    0.7797 C   0  0  0  0  0  0  0  0  0  0  0  0
    1.3099   -1.8256   -0.9957 N   0  0  0  0  0  0  0  0  0  0  0  0
    2.6350   -1.8641   -1.1123 N   0  0  0  0  0  0  0  0  0  0  0  0
    3.0882   -0.7832   -0.5130 N   0  0  0  0  0  0  0  0  0  0  0  0
    4.4773   -0.4081   -0.3925 C   0  0  0  0  0  0  0  0  0  0  0  0
    2.0640    1.0683    1.8209 H   0  0  0  0  0  0  0  0  0  0  0  0
    1.2940    1.8567    0.4150 H   0  0  0  0  0  0  0  0  0  0  0  0
    3.0850    1.8030    0.4734 H   0  0  0  0  0  0  0  0  0  0  0  0
   -1.1487    1.3129   -1.1881 H   0  0  0  0  0  0  0  0  0  0  0  0
   -1.2961    1.4305    0.6732 H   0  0  0  0  0  0  0  0  0  0  0  0
   -3.3804   -1.0779   -1.7224 H   0  0  0  0  0  0  0  0  0  0  0  0
   -4.3191   -0.6849    0.5738 H   0  0  0  0  0  0  0  0  0  0  0  0
   -3.4883    0.7012    1.3363 H   0  0  0  0  0  0  0  0  0  0  0  0
   -4.8437    1.7255    0.0148 H   0  0  0  0  0  0  0  0  0  0  0  0
   -1.5143   -0.4440    1.7712 H   0  0  0  0  0  0  0  0  0  0  0  0
   -1.5126   -2.0173    0.7432 H   0  0  0  0  0  0  0  0  0  0  0  0
    4.7705   -0.5430    0.6644 H   0  0  0  0  0  0  0  0  0  0  0  0
    5.1099   -1.0618   -1.0502 H   0  0  0  0  0  0  0  0  0  0  0  0
    4.5441    0.6616   -0.7079 H   0  0  0  0  0  0  0  0  0  0  0  0
  1  2  1  0
  2  3  2  0
  3  4  1  0
  4  5  1  0
  5  6  1  0
  6  7  1  0
  6  8  1  0
  8  9  1  0
  6 10  1  0
  3 11  1  0
 11 12  2  0
 12 13  1  0
 13 14  1  0
 13  2  1  0
 10  4  1  0
  1 15  1  0
  1 16  1  0
  1 17  1  0
  5 18  1  0
  5 19  1  0
  7 20  1  0
  8 21  1  0
  8 22  1  0
  9 23  1  0
 10 24  1  0
 10 25  1  0
 14 26  1  0
 14 27  1  0
 14 28  1  0
M  END
$$$$
