
     RDKit          3D

 30 31  0  0  0  0  0  0  0  0999 V2000
    3.7963    0.2737   -1.3969 O   0  0  0  0  0  0  0  0  0  0  0  0
    3.3432    0.0598   -0.0972 C   0  0  0  0  0  0  0  0  0  0  0  0
    2.1076   -0.7662   -0.0322 C   0  0  0  0  0  0  0  0  0  0  0  0
    0.9906   -0.2122   -0.7205 N   0  0  0  0  0  0  0  0  0  0  0  0
    0.4663    1.0112   -0.0823 C   0  0  0  0  0  0  0  0  0  0  0  0
   -0.8778    0.9780   -0.5733 C   0  0  2  0  0  0  0  0  0  0  0  0
   -2.0286    1.6870   -0.1432 C   0  0  0  0  0  0  0  0  0  0  0  0
   -3.1041    0.7771   -0.2568 O   0  0  0  0  0  0  0  0  0  0  0  0
   -2.5865   -0.4154   -0.8210 C   0  0  0  0  0  0  0  0  0  0  0  0
   -1.2534   -0.4669   -0.1749 C   0  0  2  0  0  0  0  0  0  0  0  0
   -1.3562   -0.6831    1.2702 C   0  0  0  0  0  0  0  0  0  0  0  0
   -2.2893    0.0827    1.9376 O   0  0  0  0  0  0  0  0  0  0  0  0
   -0.1336   -1.1431   -0.8113 C   0  0  0  0  0  0  0  0  0  0  0  0
    4.6947   -0.0814   -1.5595 H   0  0  0  0  0  0  0  0  0  0  0  0
    4.1474   -0.5307    0.4340 H   0  0  0  0  0  0  0  0  0  0  0  0
    3.2985    1.0283    0.3987 H   0  0  0  0  0  0  0  0  0  0  0  0
    1.8510   -1.0522    1.0026 H   0  0  0  0  0  0  0  0  0  0  0  0
    2.3383   -1.7417   -0.5534 H   0  0  0  0  0  0  0  0  0  0  0  0
    0.6558    0.9135    0.9845 H   0  0  0  0  0  0  0  0  0  0  0  0
    1.1120    1.8290   -0.4857 H   0  0  0  0  0  0  0  0  0  0  0  0
   -0.8579    0.9173   -1.7050 H   0  0  0  0  0  0  0  0  0  0  0  0
   -2.0316    2.2007    0.8400 H   0  0  0  0  0  0  0  0  0  0  0  0
   -2.2861    2.5001   -0.8807 H   0  0  0  0  0  0  0  0  0  0  0  0
   -3.2354   -1.2447   -0.4967 H   0  0  0  0  0  0  0  0  0  0  0  0
   -2.5510   -0.3739   -1.9125 H   0  0  0  0  0  0  0  0  0  0  0  0
   -1.6850   -1.7525    1.4215 H   0  0  0  0  0  0  0  0  0  0  0  0
   -0.3802   -0.6228    1.7714 H   0  0  0  0  0  0  0  0  0  0  0  0
   -1.9374    0.3461    2.8087 H   0  0  0  0  0  0  0  0  0  0  0  0
   -0.3167   -1.4392   -1.8712 H   0  0  0  0  0  0  0  0  0  0  0  0
    0.1094   -2.0785   -0.2345 H   0  0  0  0  0  0  0  0  0  0  0  0
  1  2  1  0
  2  3  1  0
  3  4  1  0
  4  5  1  0
  5  6  1  0
  6  7  1  0
  7  8  1  0
  8  9  1  0
  9 10  1  0
 10 11  1  1
 11 12  1  0
 10 13  1  0
 13  4  1  0
 10  6  1  0
  1 14  1  0
  2 15  1  0
  2 16  1  0
  3 17  1  0
  3 18  1  0
  5 19  1  0
  5 20  1  0
  6 21  1  6
  7 22  1  0
  7 23  1  0
  9 24  1  0
  9 25  1  0
 11 26  1  0
 11 27  1  0
 12 28  1  0
 13 29  1  0
 13 30  1  0
M  END
$$$$

     RDKit          3D

 30 31  0  0  0  0  0  0  0  0999 V2000
    3.2987    0.8911    0.1939 O   0  0  0  0  0  0  0  0  0  0  0  0
    3.2672   -0.4819    0.1342 C   0  0  0  0  0  0  0  0  0  0  0  0
    2.0830   -0.9987   -0.6932 C   0  0  0  0  0  0  0  0  0  0  0  0
    0.8995   -0.5393   -0.0900 N   0  0  0  0  0  0  0  0  0  0  0  0
    0.6419    0.8785   -0.1857 C   0  0  0  0  0  0  0  0  0  0  0  0
   -0.7089    0.9116   -0.7285 C   0  0  2  0  0  0  0  0  0  0  0  0
   -1.7128    1.8933   -0.4564 C   0  0  0  0  0  0  0  0  0  0  0  0
   -2.9375    1.1973   -0.4473 O   0  0  0  0  0  0  0  0  0  0  0  0
   -2.6495   -0.1813   -0.5587 C   0  0  0  0  0  0  0  0  0  0  0  0
   -1.3254   -0.2818    0.0457 C   0  0  2  0  0  0  0  0  0  0  0  0
   -1.2769   -0.0642    1.5191 C   0  0  0  0  0  0  0  0  0  0  0  0
   -1.8392   -1.1635    2.1544 O   0  0  0  0  0  0  0  0  0  0  0  0
   -0.3183   -1.2578   -0.4083 C   0  0  0  0  0  0  0  0  0  0  0  0
    3.2736    1.1955    1.1246 H   0  0  0  0  0  0  0  0  0  0  0  0
    4.1599   -0.9388   -0.3276 H   0  0  0  0  0  0  0  0  0  0  0  0
    3.0924   -0.8963    1.1679 H   0  0  0  0  0  0  0  0  0  0  0  0
    2.1545   -2.0987   -0.7071 H   0  0  0  0  0  0  0  0  0  0  0  0
    2.1952   -0.6086   -1.7342 H   0  0  0  0  0  0  0  0  0  0  0  0
    1.3481    1.3161   -0.9566 H   0  0  0  0  0  0  0  0  0  0  0  0
    0.8389    1.4211    0.7394 H   0  0  0  0  0  0  0  0  0  0  0  0
   -0.7102    0.5724   -1.7875 H   0  0  0  0  0  0  0  0  0  0  0  0
   -1.5743    2.4967    0.4605 H   0  0  0  0  0  0  0  0  0  0  0  0
   -1.7971    2.6259   -1.2987 H   0  0  0  0  0  0  0  0  0  0  0  0
   -2.7004   -0.5290   -1.5968 H   0  0  0  0  0  0  0  0  0  0  0  0
   -3.4129   -0.6864    0.1114 H   0  0  0  0  0  0  0  0  0  0  0  0
   -1.9126    0.8116    1.7546 H   0  0  0  0  0  0  0  0  0  0  0  0
   -0.2794    0.1464    1.9395 H   0  0  0  0  0  0  0  0  0  0  0  0
   -1.3419   -1.9813    1.9462 H   0  0  0  0  0  0  0  0  0  0  0  0
   -0.3393   -2.1984    0.1857 H   0  0  0  0  0  0  0  0  0  0  0  0
   -0.4163   -1.4517   -1.5006 H   0  0  0  0  0  0  0  0  0  0  0  0
  1  2  1  0
  2  3  1  0
  3  4  1  0
  4  5  1  0
  5  6  1  0
  6  7  1  0
  7  8  1  0
  8  9  1  0
  9 10  1  0
 10 11  1  1
 11 12  1  0
 10 13  1  0
 13  4  1  0
 10  6  1  0
  1 14  1  0
  2 15  1  0
  2 16  1  0
  3 17  1  0
  3 18  1  0
  5 19  1  0
  5 20  1  0
  6 21  1  6
  7 22  1  0
  7 23  1  0
  9 24  1  0
  9 25  1  0
 11 26  1  0
 11 27  1  0
 12 28  1  0
 13 29  1  0
 13 30  1  0
M  END
$$$$

     RDKit          3D

 30 31  0  0  0  0  0  0  0  0999 V2000
    3.8838    0.5561   -0.8707 O   0  0  0  0  0  0  0  0  0  0  0  0
    3.3798   -0.5385   -0.1327 C   0  0  0  0  0  0  0  0  0  0  0  0
    2.1887   -0.0660    0.6713 C   0  0  0  0  0  0  0  0  0  0  0  0
    1.1344    0.4450   -0.1567 N   0  0  0  0  0  0  0  0  0  0  0  0
    0.4709   -0.6289   -0.8928 C   0  0  0  0  0  0  0  0  0  0  0  0
   -0.6293   -0.9029    0.0118 C   0  0  2  0  0  0  0  0  0  0  0  0
   -1.8464   -1.5890   -0.2059 C   0  0  0  0  0  0  0  0  0  0  0  0
   -2.7421   -1.0300    0.7261 O   0  0  0  0  0  0  0  0  0  0  0  0
   -2.1789    0.1507    1.2220 C   0  0  0  0  0  0  0  0  0  0  0  0
   -1.1244    0.5281    0.2507 C   0  0  2  0  0  0  0  0  0  0  0  0
   -1.6925    1.2267   -0.9108 C   0  0  0  0  0  0  0  0  0  0  0  0
   -2.8222    0.6172   -1.4765 O   0  0  0  0  0  0  0  0  0  0  0  0
    0.1522    1.0797    0.7033 C   0  0  0  0  0  0  0  0  0  0  0  0
    3.9606    1.2969   -0.1935 H   0  0  0  0  0  0  0  0  0  0  0  0
    4.1951   -0.9183    0.4926 H   0  0  0  0  0  0  0  0  0  0  0  0
    3.0958   -1.3130   -0.8378 H   0  0  0  0  0  0  0  0  0  0  0  0
    1.8296   -0.9345    1.3023 H   0  0  0  0  0  0  0  0  0  0  0  0
    2.5349    0.7015    1.4024 H   0  0  0  0  0  0  0  0  0  0  0  0
    1.1350   -1.5147   -0.9261 H   0  0  0  0  0  0  0  0  0  0  0  0
    0.2596   -0.3646   -1.9254 H   0  0  0  0  0  0  0  0  0  0  0  0
   -0.1899   -1.2016    0.9955 H   0  0  0  0  0  0  0  0  0  0  0  0
   -2.3252   -1.6175   -1.1893 H   0  0  0  0  0  0  0  0  0  0  0  0
   -1.7559   -2.6730    0.1417 H   0  0  0  0  0  0  0  0  0  0  0  0
   -2.9817    0.9144    1.1585 H   0  0  0  0  0  0  0  0  0  0  0  0
   -1.7306    0.0333    2.2169 H   0  0  0  0  0  0  0  0  0  0  0  0
   -0.9981    1.4112   -1.7532 H   0  0  0  0  0  0  0  0  0  0  0  0
   -2.0395    2.2211   -0.5623 H   0  0  0  0  0  0  0  0  0  0  0  0
   -3.6701    1.0391   -1.1583 H   0  0  0  0  0  0  0  0  0  0  0  0
    0.1988    2.1766    0.4902 H   0  0  0  0  0  0  0  0  0  0  0  0
    0.3076    0.8949    1.7664 H   0  0  0  0  0  0  0  0  0  0  0  0
  1  2  1  0
  2  3  1  0
  3  4  1  0
  4  5  1  0
  5  6  1  0
  6  7  1  0
  7  8  1  0
  8  9  1  0
  9 10  1  0
 10 11  1  6
 11 12  1  0
 10 13  1  0
 13  4  1  0
 10  6  1  0
  1 14  1  0
  2 15  1  0
  2 16  1  0
  3 17  1  0
  3 18  1  0
  5 19  1  0
  5 20  1  0
  6 21  1  1
  7 22  1  0
  7 23  1  0
  9 24  1  0
  9 25  1  0
 11 26  1  0
 11 27  1  0
 12 28  1  0
 13 29  1  0
 13 30  1  0
M  END
$$$$

     RDKit          3D

 30 31  0  0  0  0  0  0  0  0999 V2000
    3.2824   -0.0429   -0.8575 O   0  0  0  0  0  0  0  0  0  0  0  0
    3.2303    0.8184    0.2232 C   0  0  0  0  0  0  0  0  0  0  0  0
    2.0824    0.4163    1.1236 C   0  0  0  0  0  0  0  0  0  0  0  0
    0.8684    0.4810    0.4190 N   0  0  0  0  0  0  0  0  0  0  0  0
    0.6985   -0.5496   -0.5742 C   0  0  0  0  0  0  0  0  0  0  0  0
   -0.5458   -1.1891   -0.1409 C   0  0  2  0  0  0  0  0  0  0  0  0
   -1.5184   -1.7963   -0.9990 C   0  0  0  0  0  0  0  0  0  0  0  0
   -2.7213   -1.6743   -0.2723 O   0  0  0  0  0  0  0  0  0  0  0  0
   -2.5678   -0.5739    0.6061 C   0  0  0  0  0  0  0  0  0  0  0  0
   -1.3364    0.0859    0.2370 C   0  0  2  0  0  0  0  0  0  0  0  0
   -1.4794    1.0118   -0.9350 C   0  0  0  0  0  0  0  0  0  0  0  0
   -2.2030    2.1217   -0.4799 O   0  0  0  0  0  0  0  0  0  0  0  0
   -0.3434    0.5895    1.2055 C   0  0  0  0  0  0  0  0  0  0  0  0
    3.9313   -0.7612   -0.6470 H   0  0  0  0  0  0  0  0  0  0  0  0
    4.1922    0.8427    0.7668 H   0  0  0  0  0  0  0  0  0  0  0  0
    2.9858    1.8422   -0.1829 H   0  0  0  0  0  0  0  0  0  0  0  0
    2.3289   -0.6594    1.4183 H   0  0  0  0  0  0  0  0  0  0  0  0
    2.0847    0.9730    2.0891 H   0  0  0  0  0  0  0  0  0  0  0  0
    1.5043   -1.3425   -0.4570 H   0  0  0  0  0  0  0  0  0  0  0  0
    0.7587   -0.2060   -1.6018 H   0  0  0  0  0  0  0  0  0  0  0  0
   -0.4030   -1.7242    0.8109 H   0  0  0  0  0  0  0  0  0  0  0  0
   -1.3385   -2.8993   -1.0658 H   0  0  0  0  0  0  0  0  0  0  0  0
   -1.5986   -1.4112   -2.0148 H   0  0  0  0  0  0  0  0  0  0  0  0
   -3.4411    0.0982    0.3704 H   0  0  0  0  0  0  0  0  0  0  0  0
   -2.6742   -0.8665    1.6625 H   0  0  0  0  0  0  0  0  0  0  0  0
   -2.0907    0.5776   -1.7518 H   0  0  0  0  0  0  0  0  0  0  0  0
   -0.5178    1.4041   -1.3155 H   0  0  0  0  0  0  0  0  0  0  0  0
   -2.2984    2.7548   -1.2591 H   0  0  0  0  0  0  0  0  0  0  0  0
   -0.5587    1.6538    1.4728 H   0  0  0  0  0  0  0  0  0  0  0  0
   -0.3113    0.0255    2.1491 H   0  0  0  0  0  0  0  0  0  0  0  0
  1  2  1  0
  2  3  1  0
  3  4  1  0
  4  5  1  0
  5  6  1  0
  6  7  1  0
  7  8  1  0
  8  9  1  0
  9 10  1  0
 10 11  1  6
 11 12  1  0
 10 13  1  0
 13  4  1  0
 10  6  1  0
  1 14  1  0
  2 15  1  0
  2 16  1  0
  3 17  1  0
  3 18  1  0
  5 19  1  0
  5 20  1  0
  6 21  1  1
  7 22  1  0
  7 23  1  0
  9 24  1  0
  9 25  1  0
 11 26  1  0
 11 27  1  0
 12 28  1  0
 13 29  1  0
 13 30  1  0
M  END
$$$$

     RDKit          3D

 30 31  0  0  0  0  0  0  0  0999 V2000
    4.4331   -0.7035    0.5185 O   0  0  0  0  0  0  0  0  0  0  0  0
    3.3692   -0.1030   -0.1469 C   0  0  0  0  0  0  0  0  0  0  0  0
    2.1129   -0.1379    0.6911 C   0  0  0  0  0  0  0  0  0  0  0  0
    0.9729    0.4711    0.0682 N   0  0  0  0  0  0  0  0  0  0  0  0
    0.5025   -0.2897   -1.0706 C   0  0  0  0  0  0  0  0  0  0  0  0
   -0.7411   -0.8537   -0.6501 C   0  0  2  0  0  0  0  0  0  0  0  0
   -1.9023   -1.0905   -1.4536 C   0  0  0  0  0  0  0  0  0  0  0  0
   -3.0020   -0.8983   -0.5843 O   0  0  0  0  0  0  0  0  0  0  0  0
   -2.4829   -0.4343    0.6477 C   0  0  0  0  0  0  0  0  0  0  0  0
   -1.2879    0.3013    0.2296 C   0  0  2  0  0  0  0  0  0  0  0  0
   -1.6421    1.4968   -0.5981 C   0  0  0  0  0  0  0  0  0  0  0  0
   -2.1209    2.4812    0.2660 O   0  0  0  0  0  0  0  0  0  0  0  0
   -0.1066    0.4436    1.0719 C   0  0  0  0  0  0  0  0  0  0  0  0
    5.0736   -0.0138    0.7689 H   0  0  0  0  0  0  0  0  0  0  0  0
    3.1793   -0.7696   -1.0372 H   0  0  0  0  0  0  0  0  0  0  0  0
    3.6567    0.9024   -0.4496 H   0  0  0  0  0  0  0  0  0  0  0  0
    1.8248   -1.1606    0.9702 H   0  0  0  0  0  0  0  0  0  0  0  0
    2.3231    0.4435    1.6185 H   0  0  0  0  0  0  0  0  0  0  0  0
    0.4807    0.3276   -1.9872 H   0  0  0  0  0  0  0  0  0  0  0  0
    1.2188   -1.1303   -1.3200 H   0  0  0  0  0  0  0  0  0  0  0  0
   -0.5821   -1.6821    0.0731 H   0  0  0  0  0  0  0  0  0  0  0  0
   -1.9587   -2.1454   -1.7974 H   0  0  0  0  0  0  0  0  0  0  0  0
   -2.0233   -0.4746   -2.3692 H   0  0  0  0  0  0  0  0  0  0  0  0
   -3.2605    0.1026    1.1822 H   0  0  0  0  0  0  0  0  0  0  0  0
   -2.1567   -1.3286    1.2446 H   0  0  0  0  0  0  0  0  0  0  0  0
   -2.3768    1.3108   -1.3774 H   0  0  0  0  0  0  0  0  0  0  0  0
   -0.7422    1.9251   -1.0864 H   0  0  0  0  0  0  0  0  0  0  0  0
   -2.6709    2.0282    0.9515 H   0  0  0  0  0  0  0  0  0  0  0  0
    0.0114   -0.4190    1.7320 H   0  0  0  0  0  0  0  0  0  0  0  0
   -0.1023    1.4008    1.6152 H   0  0  0  0  0  0  0  0  0  0  0  0
  1  2  1  0
  2  3  1  0
  3  4  1  0
  4  5  1  0
  5  6  1  0
  6  7  1  0
  7  8  1  0
  8  9  1  0
  9 10  1  0
 10 11  1  6
 11 12  1  0
 10 13  1  0
 13  4  1  0
 10  6  1  0
  1 14  1  0
  2 15  1  0
  2 16  1  0
  3 17  1  0
  3 18  1  0
  5 19  1  0
  5 20  1  0
  6 21  1  1
  7 22  1  0
  7 23  1  0
  9 24  1  0
  9 25  1  0
 11 26  1  0
 11 27  1  0
 12 28  1  0
 13 29  1  0
 13 30  1  0
M  END
$$$$

     RDKit          3D

 30 31  0  0  0  0  0  0  0  0999 V2000
    4.2975   -1.1697    0.4115 O   0  0  0  0  0  0  0  0  0  0  0  0
    3.3608   -0.1611    0.1138 C   0  0  0  0  0  0  0  0  0  0  0  0
    2.0893   -0.8655   -0.3095 C   0  0  0  0  0  0  0  0  0  0  0  0
    1.1105    0.1126   -0.6200 N   0  0  0  0  0  0  0  0  0  0  0  0
    0.6282    0.8728    0.5336 C   0  0  0  0  0  0  0  0  0  0  0  0
   -0.6300    1.3441   -0.0254 C   0  0  2  0  0  0  0  0  0  0  0  0
   -1.7487    1.9045    0.6367 C   0  0  0  0  0  0  0  0  0  0  0  0
   -2.8759    1.4375   -0.0346 O   0  0  0  0  0  0  0  0  0  0  0  0
   -2.4292    0.5720   -1.0689 C   0  0  0  0  0  0  0  0  0  0  0  0
   -1.2047   -0.0020   -0.4626 C   0  0  2  0  0  0  0  0  0  0  0  0
   -1.5770   -0.9102    0.6448 C   0  0  0  0  0  0  0  0  0  0  0  0
   -2.5433   -0.4149    1.5069 O   0  0  0  0  0  0  0  0  0  0  0  0
   -0.0744   -0.4305   -1.2963 C   0  0  0  0  0  0  0  0  0  0  0  0
    4.2504   -1.4501    1.3472 H   0  0  0  0  0  0  0  0  0  0  0  0
    3.2451    0.4394    1.0150 H   0  0  0  0  0  0  0  0  0  0  0  0
    3.8001    0.4240   -0.7088 H   0  0  0  0  0  0  0  0  0  0  0  0
    1.7922   -1.6635    0.3725 H   0  0  0  0  0  0  0  0  0  0  0  0
    2.3409   -1.3770   -1.2778 H   0  0  0  0  0  0  0  0  0  0  0  0
    1.2888    1.7366    0.7579 H   0  0  0  0  0  0  0  0  0  0  0  0
    0.6138    0.2312    1.4037 H   0  0  0  0  0  0  0  0  0  0  0  0
   -0.4190    1.8778   -0.9747 H   0  0  0  0  0  0  0  0  0  0  0  0
   -1.9062    1.7749    1.7219 H   0  0  0  0  0  0  0  0  0  0  0  0
   -1.7660    3.0275    0.4855 H   0  0  0  0  0  0  0  0  0  0  0  0
   -2.1668    1.1493   -1.9592 H   0  0  0  0  0  0  0  0  0  0  0  0
   -3.1871   -0.1792   -1.3088 H   0  0  0  0  0  0  0  0  0  0  0  0
   -2.0226   -1.8304    0.1762 H   0  0  0  0  0  0  0  0  0  0  0  0
   -0.7249   -1.2979    1.2430 H   0  0  0  0  0  0  0  0  0  0  0  0
   -3.4675   -0.6404    1.2349 H   0  0  0  0  0  0  0  0  0  0  0  0
    0.0327   -1.5463   -1.2032 H   0  0  0  0  0  0  0  0  0  0  0  0
   -0.1069   -0.1919   -2.3554 H   0  0  0  0  0  0  0  0  0  0  0  0
  1  2  1  0
  2  3  1  0
  3  4  1  0
  4  5  1  0
  5  6  1  0
  6  7  1  0
  7  8  1  0
  8  9  1  0
  9 10  1  0
 10 11  1  1
 11 12  1  0
 10 13  1  0
 13  4  1  0
 10  6  1  0
  1 14  1  0
  2 15  1  0
  2 16  1  0
  3 17  1  0
  3 18  1  0
  5 19  1  0
  5 20  1  0
  6 21  1  6
  7 22  1  0
  7 23  1  0
  9 24  1  0
  9 25  1  0
 11 26  1  0
 11 27  1  0
 12 28  1  0
 13 29  1  0
 13 30  1  0
M  END
$$$$

     RDKit          3D

 30 31  0  0  0  0  0  0  0  0999 V2000
    3.5237   -0.7764   -1.2459 O   0  0  0  0  0  0  0  0  0  0  0  0
    2.8988   -1.5447   -0.2479 C   0  0  0  0  0  0  0  0  0  0  0  0
    2.1765   -0.6118    0.7370 C   0  0  0  0  0  0  0  0  0  0  0  0
    1.2052    0.0749   -0.0506 N   0  0  0  0  0  0  0  0  0  0  0  0
    0.5456    1.1666    0.7058 C   0  0  0  0  0  0  0  0  0  0  0  0
   -0.5177    1.3866   -0.2365 C   0  0  2  0  0  0  0  0  0  0  0  0
   -1.7211    2.1124   -0.0898 C   0  0  0  0  0  0  0  0  0  0  0  0
   -2.6632    1.4324   -0.8689 O   0  0  0  0  0  0  0  0  0  0  0  0
   -2.0953    0.2249   -1.2790 C   0  0  0  0  0  0  0  0  0  0  0  0
   -1.1047   -0.0507   -0.2188 C   0  0  2  0  0  0  0  0  0  0  0  0
   -1.8470   -0.3088    1.0555 C   0  0  0  0  0  0  0  0  0  0  0  0
   -2.3394   -1.6075    1.0044 O   0  0  0  0  0  0  0  0  0  0  0  0
    0.1104   -0.7986   -0.4697 C   0  0  0  0  0  0  0  0  0  0  0  0
    4.1192   -0.0789   -0.8670 H   0  0  0  0  0  0  0  0  0  0  0  0
    2.1647   -2.2029   -0.7942 H   0  0  0  0  0  0  0  0  0  0  0  0
    3.6199   -2.2015    0.2371 H   0  0  0  0  0  0  0  0  0  0  0  0
    1.7617   -1.2300    1.5283 H   0  0  0  0  0  0  0  0  0  0  0  0
    2.9172    0.1262    1.0980 H   0  0  0  0  0  0  0  0  0  0  0  0
    1.3054    1.9996    0.7275 H   0  0  0  0  0  0  0  0  0  0  0  0
    0.3566    0.9177    1.7366 H   0  0  0  0  0  0  0  0  0  0  0  0
   -0.0957    1.4728   -1.2632 H   0  0  0  0  0  0  0  0  0  0  0  0
   -2.0666    2.3358    0.9367 H   0  0  0  0  0  0  0  0  0  0  0  0
   -1.6255    3.1275   -0.5838 H   0  0  0  0  0  0  0  0  0  0  0  0
   -1.6683    0.2294   -2.2815 H   0  0  0  0  0  0  0  0  0  0  0  0
   -2.9311   -0.5114   -1.2632 H   0  0  0  0  0  0  0  0  0  0  0  0
   -1.2761   -0.2197    1.9799 H   0  0  0  0  0  0  0  0  0  0  0  0
   -2.7539    0.3683    1.0497 H   0  0  0  0  0  0  0  0  0  0  0  0
   -2.4108   -1.9406    0.0825 H   0  0  0  0  0  0  0  0  0  0  0  0
    0.1501   -1.6821    0.2396 H   0  0  0  0  0  0  0  0  0  0  0  0
    0.2617   -1.2094   -1.4762 H   0  0  0  0  0  0  0  0  0  0  0  0
  1  2  1  0
  2  3  1  0
  3  4  1  0
  4  5  1  0
  5  6  1  0
  6  7  1  0
  7  8  1  0
  8  9  1  0
  9 10  1  0
 10 11  1  1
 11 12  1  0
 10 13  1  0
 13  4  1  0
 10  6  1  0
  1 14  1  0
  2 15  1  0
  2 16  1  0
  3 17  1  0
  3 18  1  0
  5 19  1  0
  5 20  1  0
  6 21  1  6
  7 22  1  0
  7 23  1  0
  9 24  1  0
  9 25  1  0
 11 26  1  0
 11 27  1  0
 12 28  1  0
 13 29  1  0
 13 30  1  0
M  END
$$$$

     RDKit          3D

 30 31  0  0  0  0  0  0  0  0999 V2000
    3.7189    1.1849    0.5232 O   0  0  0  0  0  0  0  0  0  0  0  0
    3.2582   -0.1053    0.6338 C   0  0  0  0  0  0  0  0  0  0  0  0
    2.2478   -0.5054   -0.4129 C   0  0  0  0  0  0  0  0  0  0  0  0
    1.0716    0.3000   -0.4019 N   0  0  0  0  0  0  0  0  0  0  0  0
    0.1347   -0.2441   -1.3774 C   0  0  0  0  0  0  0  0  0  0  0  0
   -0.8709   -0.8450   -0.5490 C   0  0  2  0  0  0  0  0  0  0  0  0
   -2.2387   -1.1292   -0.8004 C   0  0  0  0  0  0  0  0  0  0  0  0
   -2.8770   -1.0249    0.4584 O   0  0  0  0  0  0  0  0  0  0  0  0
   -1.8831   -0.6632    1.4014 C   0  0  0  0  0  0  0  0  0  0  0  0
   -1.0152    0.2188    0.5652 C   0  0  2  0  0  0  0  0  0  0  0  0
   -1.7939    1.3990    0.1471 C   0  0  0  0  0  0  0  0  0  0  0  0
   -1.3370    2.1331   -0.9053 O   0  0  0  0  0  0  0  0  0  0  0  0
    0.3975    0.3848    0.8676 C   0  0  0  0  0  0  0  0  0  0  0  0
    3.5735    1.4958   -0.4059 H   0  0  0  0  0  0  0  0  0  0  0  0
    4.1559   -0.7821    0.5131 H   0  0  0  0  0  0  0  0  0  0  0  0
    2.8571   -0.3397    1.6426 H   0  0  0  0  0  0  0  0  0  0  0  0
    2.0837   -1.5872   -0.4064 H   0  0  0  0  0  0  0  0  0  0  0  0
    2.7518   -0.2836   -1.4080 H   0  0  0  0  0  0  0  0  0  0  0  0
   -0.1339    0.5459   -2.0783 H   0  0  0  0  0  0  0  0  0  0  0  0
    0.6411   -1.0383   -2.0056 H   0  0  0  0  0  0  0  0  0  0  0  0
   -0.4018   -1.7233   -0.0081 H   0  0  0  0  0  0  0  0  0  0  0  0
   -2.3880   -2.2079   -1.0854 H   0  0  0  0  0  0  0  0  0  0  0  0
   -2.8012   -0.5524   -1.5609 H   0  0  0  0  0  0  0  0  0  0  0  0
   -2.3798   -0.1384    2.2236 H   0  0  0  0  0  0  0  0  0  0  0  0
   -1.3831   -1.5817    1.7382 H   0  0  0  0  0  0  0  0  0  0  0  0
   -1.8250    2.0932    1.0338 H   0  0  0  0  0  0  0  0  0  0  0  0
   -2.8549    1.1194   -0.0470 H   0  0  0  0  0  0  0  0  0  0  0  0
   -2.0796    2.7247   -1.2049 H   0  0  0  0  0  0  0  0  0  0  0  0
    0.5729    1.4371    1.2559 H   0  0  0  0  0  0  0  0  0  0  0  0
    0.7982   -0.2851    1.6535 H   0  0  0  0  0  0  0  0  0  0  0  0
  1  2  1  0
  2  3  1  0
  3  4  1  0
  4  5  1  0
  5  6  1  0
  6  7  1  0
  7  8  1  0
  8  9  1  0
  9 10  1  0
 10 11  1  6
 11 12  1  0
 10 13  1  0
 13  4  1  0
 10  6  1  0
  1 14  1  0
  2 15  1  0
  2 16  1  0
  3 17  1  0
  3 18  1  0
  5 19  1  0
  5 20  1  0
  6 21  1  1
  7 22  1  0
  7 23  1  0
  9 24  1  0
  9 25  1  0
 11 26  1  0
 11 27  1  0
 12 28  1  0
 13 29  1  0
 13 30  1  0
M  END
$$$$
