
     RDKit          3D

 28 29  0  0  0  0  0  0  0  0999 V2000
   -3.2238    0.9464   -1.0126 C   0  0  0  0  0  0  0  0  0  0  0  0
   -2.6782   -0.0900   -0.1304 N   0  0  0  0  0  0  0  0  0  0  0  0
   -3.4434   -0.9418    0.5436 C   0  0  0  0  0  0  0  0  0  0  0  0
   -2.6066   -1.7351    1.2366 N   0  0  0  0  0  0  0  0  0  0  0  0
   -1.3573   -1.3741    0.9900 N   0  0  0  0  0  0  0  0  0  0  0  0
   -1.3791   -0.3367    0.1290 C   0  0  0  0  0  0  0  0  0  0  0  0
   -0.4378    0.3297   -0.3839 N   0  0  0  0  0  0  0  0  0  0  0  0
    0.9468    0.2137   -0.2292 C   0  0  0  0  0  0  0  0  0  0  0  0
    1.6867    1.2523   -1.0646 C   0  0  0  0  0  0  0  0  0  0  0  0
    1.3542    2.5416   -0.7224 O   0  0  0  0  0  0  0  0  0  0  0  0
    1.3799    0.3634    1.2208 C   0  0  0  0  0  0  0  0  0  0  0  0
    2.2171   -0.8834    1.0345 C   0  0  0  0  0  0  0  0  0  0  0  0
    3.5551   -0.5731    1.0531 O   0  0  0  0  0  0  0  0  0  0  0  0
    1.6103   -1.1077   -0.3399 C   0  0  0  0  0  0  0  0  0  0  0  0
   -2.4188    1.5496   -1.4688 H   0  0  0  0  0  0  0  0  0  0  0  0
   -3.7545    0.4103   -1.8163 H   0  0  0  0  0  0  0  0  0  0  0  0
   -3.9676    1.5755   -0.4652 H   0  0  0  0  0  0  0  0  0  0  0  0
   -4.5437   -0.9768    0.5261 H   0  0  0  0  0  0  0  0  0  0  0  0
   -0.5032   -1.8187    1.3946 H   0  0  0  0  0  0  0  0  0  0  0  0
    1.4600    1.0296   -2.1429 H   0  0  0  0  0  0  0  0  0  0  0  0
    2.7770    1.1176   -0.9499 H   0  0  0  0  0  0  0  0  0  0  0  0
    1.3929    3.0917   -1.5481 H   0  0  0  0  0  0  0  0  0  0  0  0
    1.9584    1.2836    1.4436 H   0  0  0  0  0  0  0  0  0  0  0  0
    0.5465    0.2636    1.9581 H   0  0  0  0  0  0  0  0  0  0  0  0
    1.9260   -1.6926    1.7347 H   0  0  0  0  0  0  0  0  0  0  0  0
    4.0367   -1.2897    0.5537 H   0  0  0  0  0  0  0  0  0  0  0  0
    2.4621   -1.1485   -1.0812 H   0  0  0  0  0  0  0  0  0  0  0  0
    1.0040   -2.0004   -0.4628 H   0  0  0  0  0  0  0  0  0  0  0  0
  1  2  1  0
  2  3  1  0
  3  4  2  0
  4  5  1  0
  5  6  1  0
  6  7  2  3
  7  8  1  0
  8  9  1  0
  9 10  1  0
  8 11  1  0
 11 12  1  0
 12 13  1  0
 12 14  1  0
  6  2  1  0
 14  8  1  0
  1 15  1  0
  1 16  1  0
  1 17  1  0
  3 18  1  0
  5 19  1  0
  9 20  1  0
  9 21  1  0
 10 22  1  0
 11 23  1  0
 11 24  1  0
 12 25  1  0
 13 26  1  0
 14 27  1  0
 14 28  1  0
M  END
$$$$

     RDKit          3D

 28 29  0  0  0  0  0  0  0  0999 V2000
    3.1927    1.4177   -0.9179 C   0  0  0  0  0  0  0  0  0  0  0  0
    2.7109    0.3034   -0.1242 N   0  0  0  0  0  0  0  0  0  0  0  0
    3.4988   -0.4941    0.6128 C   0  0  0  0  0  0  0  0  0  0  0  0
    2.6949   -1.4002    1.1967 N   0  0  0  0  0  0  0  0  0  0  0  0
    1.4377   -1.1927    0.8481 N   0  0  0  0  0  0  0  0  0  0  0  0
    1.4458   -0.1437    0.0343 C   0  0  0  0  0  0  0  0  0  0  0  0
    0.4408    0.4025   -0.5398 N   0  0  0  0  0  0  0  0  0  0  0  0
   -0.9294   -0.0343   -0.4049 C   0  0  0  0  0  0  0  0  0  0  0  0
   -1.2485   -1.2738   -1.2136 C   0  0  0  0  0  0  0  0  0  0  0  0
   -2.5822   -1.6163   -1.0195 O   0  0  0  0  0  0  0  0  0  0  0  0
   -1.4366   -0.1859    0.9998 C   0  0  0  0  0  0  0  0  0  0  0  0
   -2.6465    0.6158    0.5963 C   0  0  0  0  0  0  0  0  0  0  0  0
   -2.9060    1.5837    1.5741 O   0  0  0  0  0  0  0  0  0  0  0  0
   -1.8571    1.1175   -0.5796 C   0  0  0  0  0  0  0  0  0  0  0  0
    4.0723    1.8599   -0.4457 H   0  0  0  0  0  0  0  0  0  0  0  0
    2.4083    2.1970   -0.9857 H   0  0  0  0  0  0  0  0  0  0  0  0
    3.3959    1.0936   -1.9784 H   0  0  0  0  0  0  0  0  0  0  0  0
    4.5951   -0.4153    0.7151 H   0  0  0  0  0  0  0  0  0  0  0  0
    0.6182   -1.7495    1.1583 H   0  0  0  0  0  0  0  0  0  0  0  0
   -1.0936   -1.1084   -2.2995 H   0  0  0  0  0  0  0  0  0  0  0  0
   -0.6107   -2.1025   -0.8610 H   0  0  0  0  0  0  0  0  0  0  0  0
   -2.6854   -2.3595   -0.3737 H   0  0  0  0  0  0  0  0  0  0  0  0
   -1.6915   -1.2123    1.3325 H   0  0  0  0  0  0  0  0  0  0  0  0
   -0.7733    0.3543    1.7203 H   0  0  0  0  0  0  0  0  0  0  0  0
   -3.5263   -0.0117    0.3433 H   0  0  0  0  0  0  0  0  0  0  0  0
   -2.7535    1.1082    2.4505 H   0  0  0  0  0  0  0  0  0  0  0  0
   -1.3614    2.0733   -0.2996 H   0  0  0  0  0  0  0  0  0  0  0  0
   -2.4093    1.1730   -1.5388 H   0  0  0  0  0  0  0  0  0  0  0  0
  1  2  1  0
  2  3  1  0
  3  4  2  0
  4  5  1  0
  5  6  1  0
  6  7  2  3
  7  8  1  0
  8  9  1  0
  9 10  1  0
  8 11  1  0
 11 12  1  0
 12 13  1  0
 12 14  1  0
  6  2  1  0
 14  8  1  0
  1 15  1  0
  1 16  1  0
  1 17  1  0
  3 18  1  0
  5 19  1  0
  9 20  1  0
  9 21  1  0
 10 22  1  0
 11 23  1  0
 11 24  1  0
 12 25  1  0
 13 26  1  0
 14 27  1  0
 14 28  1  0
M  END
$$$$

     RDKit          3D

 28 29  0  0  0  0  0  0  0  0999 V2000
    3.2906    0.7910   -1.1892 C   0  0  0  0  0  0  0  0  0  0  0  0
    2.7359   -0.2210   -0.3148 N   0  0  0  0  0  0  0  0  0  0  0  0
    3.3647   -1.2082    0.3283 C   0  0  0  0  0  0  0  0  0  0  0  0
    2.4860   -1.9279    1.0369 N   0  0  0  0  0  0  0  0  0  0  0  0
    1.2664   -1.4070    0.8570 N   0  0  0  0  0  0  0  0  0  0  0  0
    1.4043   -0.3602    0.0308 C   0  0  0  0  0  0  0  0  0  0  0  0
    0.5385    0.4359   -0.4235 N   0  0  0  0  0  0  0  0  0  0  0  0
   -0.8600    0.4673   -0.1966 C   0  0  0  0  0  0  0  0  0  0  0  0
   -1.4816    1.6456   -0.9717 C   0  0  0  0  0  0  0  0  0  0  0  0
   -2.8547    1.6475   -0.7272 O   0  0  0  0  0  0  0  0  0  0  0  0
   -1.6414   -0.7928   -0.4032 C   0  0  0  0  0  0  0  0  0  0  0  0
   -2.3536   -0.6260    0.9245 C   0  0  0  0  0  0  0  0  0  0  0  0
   -2.3085   -1.7406    1.7396 O   0  0  0  0  0  0  0  0  0  0  0  0
   -1.3627    0.4770    1.2263 C   0  0  0  0  0  0  0  0  0  0  0  0
    2.6003    0.9270   -2.0419 H   0  0  0  0  0  0  0  0  0  0  0  0
    4.2752    0.4352   -1.5511 H   0  0  0  0  0  0  0  0  0  0  0  0
    3.4795    1.7540   -0.6569 H   0  0  0  0  0  0  0  0  0  0  0  0
    4.4439   -1.3835    0.2689 H   0  0  0  0  0  0  0  0  0  0  0  0
    0.3773   -1.7748    1.2981 H   0  0  0  0  0  0  0  0  0  0  0  0
   -0.9921    2.5690   -0.6415 H   0  0  0  0  0  0  0  0  0  0  0  0
   -1.2684    1.4410   -2.0383 H   0  0  0  0  0  0  0  0  0  0  0  0
   -3.0849    2.5276   -0.3096 H   0  0  0  0  0  0  0  0  0  0  0  0
   -1.0925   -1.7343   -0.5343 H   0  0  0  0  0  0  0  0  0  0  0  0
   -2.3524   -0.6938   -1.2615 H   0  0  0  0  0  0  0  0  0  0  0  0
   -3.4140   -0.2911    0.8183 H   0  0  0  0  0  0  0  0  0  0  0  0
   -2.5534   -2.5560    1.2304 H   0  0  0  0  0  0  0  0  0  0  0  0
   -0.6854    0.1910    2.0203 H   0  0  0  0  0  0  0  0  0  0  0  0
   -1.9572    1.4080    1.4819 H   0  0  0  0  0  0  0  0  0  0  0  0
  1  2  1  0
  2  3  1  0
  3  4  2  0
  4  5  1  0
  5  6  1  0
  6  7  2  3
  7  8  1  0
  8  9  1  0
  9 10  1  0
  8 11  1  0
 11 12  1  0
 12 13  1  0
 12 14  1  0
  6  2  1  0
 14  8  1  0
  1 15  1  0
  1 16  1  0
  1 17  1  0
  3 18  1  0
  5 19  1  0
  9 20  1  0
  9 21  1  0
 10 22  1  0
 11 23  1  0
 11 24  1  0
 12 25  1  0
 13 26  1  0
 14 27  1  0
 14 28  1  0
M  END
$$$$

     RDKit          3D

 28 29  0  0  0  0  0  0  0  0999 V2000
   -3.3460    1.0364   -0.4731 C   0  0  0  0  0  0  0  0  0  0  0  0
   -2.6831   -0.2670   -0.3945 N   0  0  0  0  0  0  0  0  0  0  0  0
   -3.2270   -1.4861   -0.4833 C   0  0  0  0  0  0  0  0  0  0  0  0
   -2.2537   -2.4004   -0.3573 N   0  0  0  0  0  0  0  0  0  0  0  0
   -1.0818   -1.8005   -0.1875 N   0  0  0  0  0  0  0  0  0  0  0  0
   -1.3459   -0.4830   -0.2103 C   0  0  0  0  0  0  0  0  0  0  0  0
   -0.5281    0.4747   -0.0861 N   0  0  0  0  0  0  0  0  0  0  0  0
    0.8634    0.5118    0.1083 C   0  0  0  0  0  0  0  0  0  0  0  0
    1.3354    1.9797    0.1126 C   0  0  0  0  0  0  0  0  0  0  0  0
    0.9682    2.4734   -1.1490 O   0  0  0  0  0  0  0  0  0  0  0  0
    1.4817   -0.3105    1.2043 C   0  0  0  0  0  0  0  0  0  0  0  0
    2.4952   -0.8814    0.2552 C   0  0  0  0  0  0  0  0  0  0  0  0
    2.5754   -2.2659    0.2456 O   0  0  0  0  0  0  0  0  0  0  0  0
    1.7016   -0.2612   -0.8811 C   0  0  0  0  0  0  0  0  0  0  0  0
   -4.4090    0.9252   -0.2049 H   0  0  0  0  0  0  0  0  0  0  0  0
   -2.9060    1.7569    0.2446 H   0  0  0  0  0  0  0  0  0  0  0  0
   -3.2873    1.4631   -1.4870 H   0  0  0  0  0  0  0  0  0  0  0  0
   -4.3044   -1.6696   -0.6355 H   0  0  0  0  0  0  0  0  0  0  0  0
   -0.1469   -2.2884   -0.0623 H   0  0  0  0  0  0  0  0  0  0  0  0
    2.4458    2.0206    0.2073 H   0  0  0  0  0  0  0  0  0  0  0  0
    0.8176    2.5262    0.9273 H   0  0  0  0  0  0  0  0  0  0  0  0
    1.4621    3.2619   -1.4180 H   0  0  0  0  0  0  0  0  0  0  0  0
    0.8744   -1.0610    1.7024 H   0  0  0  0  0  0  0  0  0  0  0  0
    2.0131    0.3743    1.9272 H   0  0  0  0  0  0  0  0  0  0  0  0
    3.5346   -0.4773    0.3663 H   0  0  0  0  0  0  0  0  0  0  0  0
    3.3900   -2.5692   -0.1988 H   0  0  0  0  0  0  0  0  0  0  0  0
    1.1630   -0.9486   -1.5313 H   0  0  0  0  0  0  0  0  0  0  0  0
    2.3978    0.3660   -1.4965 H   0  0  0  0  0  0  0  0  0  0  0  0
  1  2  1  0
  2  3  1  0
  3  4  2  0
  4  5  1  0
  5  6  1  0
  6  7  2  3
  7  8  1  0
  8  9  1  0
  9 10  1  0
  8 11  1  0
 11 12  1  0
 12 13  1  0
 12 14  1  0
  6  2  1  0
 14  8  1  0
  1 15  1  0
  1 16  1  0
  1 17  1  0
  3 18  1  0
  5 19  1  0
  9 20  1  0
  9 21  1  0
 10 22  1  0
 11 23  1  0
 11 24  1  0
 12 25  1  0
 13 26  1  0
 14 27  1  0
 14 28  1  0
M  END
$$$$

     RDKit          3D

 28 29  0  0  0  0  0  0  0  0999 V2000
    3.3146   -1.0537    0.2887 C   0  0  0  0  0  0  0  0  0  0  0  0
    2.6207    0.0743   -0.3220 N   0  0  0  0  0  0  0  0  0  0  0  0
    3.2801    1.0652   -0.9475 C   0  0  0  0  0  0  0  0  0  0  0  0
    2.3593    1.9205   -1.3829 N   0  0  0  0  0  0  0  0  0  0  0  0
    1.1505    1.4550   -1.0261 N   0  0  0  0  0  0  0  0  0  0  0  0
    1.2990    0.3060   -0.3648 C   0  0  0  0  0  0  0  0  0  0  0  0
    0.4198   -0.4290    0.1265 N   0  0  0  0  0  0  0  0  0  0  0  0
   -0.9784   -0.3666    0.1881 C   0  0  0  0  0  0  0  0  0  0  0  0
   -1.5573   -1.6239    0.8659 C   0  0  0  0  0  0  0  0  0  0  0  0
   -1.1848   -2.7254    0.1316 O   0  0  0  0  0  0  0  0  0  0  0  0
   -1.4580    0.9116    0.8398 C   0  0  0  0  0  0  0  0  0  0  0  0
   -2.3416    1.1737   -0.3217 C   0  0  0  0  0  0  0  0  0  0  0  0
   -3.6963    1.1048   -0.0182 O   0  0  0  0  0  0  0  0  0  0  0  0
   -1.7689   -0.0386   -1.0176 C   0  0  0  0  0  0  0  0  0  0  0  0
    3.8349   -1.5867   -0.5435 H   0  0  0  0  0  0  0  0  0  0  0  0
    4.0125   -0.7260    1.0791 H   0  0  0  0  0  0  0  0  0  0  0  0
    2.6007   -1.7639    0.7474 H   0  0  0  0  0  0  0  0  0  0  0  0
    4.3536    1.1696   -1.0838 H   0  0  0  0  0  0  0  0  0  0  0  0
    0.2691    1.9796   -1.2709 H   0  0  0  0  0  0  0  0  0  0  0  0
   -1.1132   -1.6286    1.8814 H   0  0  0  0  0  0  0  0  0  0  0  0
   -2.6574   -1.5598    0.8709 H   0  0  0  0  0  0  0  0  0  0  0  0
   -0.3557   -2.5864   -0.3810 H   0  0  0  0  0  0  0  0  0  0  0  0
   -0.6398    1.6779    0.9183 H   0  0  0  0  0  0  0  0  0  0  0  0
   -1.9486    0.6808    1.8044 H   0  0  0  0  0  0  0  0  0  0  0  0
   -2.1549    2.1371   -0.8678 H   0  0  0  0  0  0  0  0  0  0  0  0
   -3.7949    0.9067    0.9355 H   0  0  0  0  0  0  0  0  0  0  0  0
   -2.6192   -0.7328   -1.2569 H   0  0  0  0  0  0  0  0  0  0  0  0
   -1.2458    0.2586   -1.9366 H   0  0  0  0  0  0  0  0  0  0  0  0
  1  2  1  0
  2  3  1  0
  3  4  2  0
  4  5  1  0
  5  6  1  0
  6  7  2  3
  7  8  1  0
  8  9  1  0
  9 10  1  0
  8 11  1  0
 11 12  1  0
 12 13  1  0
 12 14  1  0
  6  2  1  0
 14  8  1  0
  1 15  1  0
  1 16  1  0
  1 17  1  0
  3 18  1  0
  5 19  1  0
  9 20  1  0
  9 21  1  0
 10 22  1  0
 11 23  1  0
 11 24  1  0
 12 25  1  0
 13 26  1  0
 14 27  1  0
 14 28  1  0
M  END
$$$$

     RDKit          3D

 28 29  0  0  0  0  0  0  0  0999 V2000
    3.0956    0.7163    1.4334 C   0  0  0  0  0  0  0  0  0  0  0  0
    2.7359    0.2228    0.0924 N   0  0  0  0  0  0  0  0  0  0  0  0
    3.5923    0.0381   -0.9064 C   0  0  0  0  0  0  0  0  0  0  0  0
    2.8877   -0.4152   -1.9507 N   0  0  0  0  0  0  0  0  0  0  0  0
    1.6171   -0.5057   -1.5925 N   0  0  0  0  0  0  0  0  0  0  0  0
    1.4999   -0.1103   -0.3150 C   0  0  0  0  0  0  0  0  0  0  0  0
    0.4773   -0.0314    0.4411 N   0  0  0  0  0  0  0  0  0  0  0  0
   -0.8717   -0.3713    0.0695 C   0  0  0  0  0  0  0  0  0  0  0  0
   -1.1447   -1.8338   -0.1054 C   0  0  0  0  0  0  0  0  0  0  0  0
   -2.4450   -2.1176   -0.4638 O   0  0  0  0  0  0  0  0  0  0  0  0
   -1.4914    0.4993   -0.9864 C   0  0  0  0  0  0  0  0  0  0  0  0
   -2.2474    1.2881    0.0479 C   0  0  0  0  0  0  0  0  0  0  0  0
   -3.6179    1.3224   -0.0704 O   0  0  0  0  0  0  0  0  0  0  0  0
   -1.8291    0.2432    1.0719 C   0  0  0  0  0  0  0  0  0  0  0  0
    2.2294    0.5192    2.1132 H   0  0  0  0  0  0  0  0  0  0  0  0
    3.9503    0.1852    1.8516 H   0  0  0  0  0  0  0  0  0  0  0  0
    3.2220    1.8152    1.3677 H   0  0  0  0  0  0  0  0  0  0  0  0
    4.6730    0.2325   -0.8489 H   0  0  0  0  0  0  0  0  0  0  0  0
    0.8156   -0.8322   -2.1974 H   0  0  0  0  0  0  0  0  0  0  0  0
   -0.4805   -2.3239   -0.8356 H   0  0  0  0  0  0  0  0  0  0  0  0
   -0.9268   -2.3217    0.8832 H   0  0  0  0  0  0  0  0  0  0  0  0
   -3.0146   -1.3461   -0.2921 H   0  0  0  0  0  0  0  0  0  0  0  0
   -2.1922   -0.0597   -1.6333 H   0  0  0  0  0  0  0  0  0  0  0  0
   -0.7728    1.1127   -1.5751 H   0  0  0  0  0  0  0  0  0  0  0  0
   -1.7771    2.2868    0.1873 H   0  0  0  0  0  0  0  0  0  0  0  0
   -4.0119    1.4097    0.8377 H   0  0  0  0  0  0  0  0  0  0  0  0
   -2.6232   -0.3939    1.4535 H   0  0  0  0  0  0  0  0  0  0  0  0
   -1.3499    0.7712    1.9228 H   0  0  0  0  0  0  0  0  0  0  0  0
  1  2  1  0
  2  3  1  0
  3  4  2  0
  4  5  1  0
  5  6  1  0
  6  7  2  3
  7  8  1  0
  8  9  1  0
  9 10  1  0
  8 11  1  0
 11 12  1  0
 12 13  1  0
 12 14  1  0
  6  2  1  0
 14  8  1  0
  1 15  1  0
  1 16  1  0
  1 17  1  0
  3 18  1  0
  5 19  1  0
  9 20  1  0
  9 21  1  0
 10 22  1  0
 11 23  1  0
 11 24  1  0
 12 25  1  0
 13 26  1  0
 14 27  1  0
 14 28  1  0
M  END
$$$$

     RDKit          3D

 28 29  0  0  0  0  0  0  0  0999 V2000
    3.0788    1.0537    0.6632 C   0  0  0  0  0  0  0  0  0  0  0  0
    2.5988    0.1810   -0.4131 N   0  0  0  0  0  0  0  0  0  0  0  0
    3.2899   -0.3329   -1.4322 C   0  0  0  0  0  0  0  0  0  0  0  0
    2.4758   -1.0749   -2.1865 N   0  0  0  0  0  0  0  0  0  0  0  0
    1.2571   -1.0475   -1.6645 N   0  0  0  0  0  0  0  0  0  0  0  0
    1.3150   -0.2770   -0.5693 C   0  0  0  0  0  0  0  0  0  0  0  0
    0.3931    0.0314    0.2430 N   0  0  0  0  0  0  0  0  0  0  0  0
   -0.9660   -0.3076    0.2891 C   0  0  0  0  0  0  0  0  0  0  0  0
   -1.3380   -1.6740    0.8236 C   0  0  0  0  0  0  0  0  0  0  0  0
   -0.7665   -2.6554    0.0694 O   0  0  0  0  0  0  0  0  0  0  0  0
   -1.7938    0.7784    1.0160 C   0  0  0  0  0  0  0  0  0  0  0  0
   -1.8365    1.5042   -0.3090 C   0  0  0  0  0  0  0  0  0  0  0  0
   -3.0726    2.0579   -0.6282 O   0  0  0  0  0  0  0  0  0  0  0  0
   -1.7273    0.1081   -0.9445 C   0  0  0  0  0  0  0  0  0  0  0  0
    4.0410    0.6299    0.9889 H   0  0  0  0  0  0  0  0  0  0  0  0
    3.2728    2.0780    0.3049 H   0  0  0  0  0  0  0  0  0  0  0  0
    2.3093    1.0982    1.4451 H   0  0  0  0  0  0  0  0  0  0  0  0
    4.3663   -0.1432   -1.5831 H   0  0  0  0  0  0  0  0  0  0  0  0
    0.4277   -1.5629   -2.0838 H   0  0  0  0  0  0  0  0  0  0  0  0
   -1.1180   -1.7235    1.8953 H   0  0  0  0  0  0  0  0  0  0  0  0
   -2.4602   -1.7629    0.7394 H   0  0  0  0  0  0  0  0  0  0  0  0
   -1.2656   -2.7655   -0.7648 H   0  0  0  0  0  0  0  0  0  0  0  0
   -2.7799    0.3440    1.2670 H   0  0  0  0  0  0  0  0  0  0  0  0
   -1.2460    1.2762    1.8254 H   0  0  0  0  0  0  0  0  0  0  0  0
   -0.9567    2.1179   -0.5177 H   0  0  0  0  0  0  0  0  0  0  0  0
   -3.5698    2.3731    0.1696 H   0  0  0  0  0  0  0  0  0  0  0  0
   -2.7163   -0.4072   -0.9443 H   0  0  0  0  0  0  0  0  0  0  0  0
   -1.2123    0.1023   -1.9004 H   0  0  0  0  0  0  0  0  0  0  0  0
  1  2  1  0
  2  3  1  0
  3  4  2  0
  4  5  1  0
  5  6  1  0
  6  7  2  3
  7  8  1  0
  8  9  1  0
  9 10  1  0
  8 11  1  0
 11 12  1  0
 12 13  1  0
 12 14  1  0
  6  2  1  0
 14  8  1  0
  1 15  1  0
  1 16  1  0
  1 17  1  0
  3 18  1  0
  5 19  1  0
  9 20  1  0
  9 21  1  0
 10 22  1  0
 11 23  1  0
 11 24  1  0
 12 25  1  0
 13 26  1  0
 14 27  1  0
 14 28  1  0
M  END
$$$$

     RDKit          3D

 28 29  0  0  0  0  0  0  0  0999 V2000
    2.9230    1.6477    0.0758 C   0  0  0  0  0  0  0  0  0  0  0  0
    2.5075    0.3447    0.5441 N   0  0  0  0  0  0  0  0  0  0  0  0
    3.2004   -0.5598    1.2568 C   0  0  0  0  0  0  0  0  0  0  0  0
    2.4345   -1.6418    1.4793 N   0  0  0  0  0  0  0  0  0  0  0  0
    1.2424   -1.4215    0.9013 N   0  0  0  0  0  0  0  0  0  0  0  0
    1.2788   -0.2161    0.3307 C   0  0  0  0  0  0  0  0  0  0  0  0
    0.3558    0.3735   -0.3202 N   0  0  0  0  0  0  0  0  0  0  0  0
   -0.9158   -0.2359   -0.5269 C   0  0  0  0  0  0  0  0  0  0  0  0
   -0.8415   -1.2911   -1.5986 C   0  0  0  0  0  0  0  0  0  0  0  0
   -2.0460   -1.9124   -1.8366 O   0  0  0  0  0  0  0  0  0  0  0  0
   -1.7476   -0.5332    0.6669 C   0  0  0  0  0  0  0  0  0  0  0  0
   -2.3867    0.8326    0.5148 C   0  0  0  0  0  0  0  0  0  0  0  0
   -1.8082    1.8001    1.3115 O   0  0  0  0  0  0  0  0  0  0  0  0
   -1.9533    0.8243   -0.9275 C   0  0  0  0  0  0  0  0  0  0  0  0
    2.0250    2.2798   -0.0703 H   0  0  0  0  0  0  0  0  0  0  0  0
    3.6656    2.1250    0.7395 H   0  0  0  0  0  0  0  0  0  0  0  0
    3.4255    1.5579   -0.9218 H   0  0  0  0  0  0  0  0  0  0  0  0
    4.2214   -0.4199    1.5923 H   0  0  0  0  0  0  0  0  0  0  0  0
    0.4394   -2.1025    0.9145 H   0  0  0  0  0  0  0  0  0  0  0  0
   -0.5809   -0.7397   -2.5508 H   0  0  0  0  0  0  0  0  0  0  0  0
   -0.0128   -1.9928   -1.4327 H   0  0  0  0  0  0  0  0  0  0  0  0
   -2.0266   -2.3545   -2.7227 H   0  0  0  0  0  0  0  0  0  0  0  0
   -2.4429   -1.3882    0.5797 H   0  0  0  0  0  0  0  0  0  0  0  0
   -1.2487   -0.5761    1.6546 H   0  0  0  0  0  0  0  0  0  0  0  0
   -3.4955    0.7256    0.6633 H   0  0  0  0  0  0  0  0  0  0  0  0
   -1.9501    2.7189    0.9801 H   0  0  0  0  0  0  0  0  0  0  0  0
   -2.7589    0.3929   -1.5727 H   0  0  0  0  0  0  0  0  0  0  0  0
   -1.5039    1.7622   -1.2957 H   0  0  0  0  0  0  0  0  0  0  0  0
  1  2  1  0
  2  3  1  0
  3  4  2  0
  4  5  1  0
  5  6  1  0
  6  7  2  3
  7  8  1  0
  8  9  1  0
  9 10  1  0
  8 11  1  0
 11 12  1  0
 12 13  1  0
 12 14  1  0
  6  2  1  0
 14  8  1  0
  1 15  1  0
  1 16  1  0
  1 17  1  0
  3 18  1  0
  5 19  1  0
  9 20  1  0
  9 21  1  0
 10 22  1  0
 11 23  1  0
 11 24  1  0
 12 25  1  0
 13 26  1  0
 14 27  1  0
 14 28  1  0
M  END
$$$$
