
     RDKit          3D

 24 25  0  0  0  0  0  0  0  0999 V2000
    2.7488   -0.8022    1.1381 N   0  0  0  0  0  0  0  0  0  0  0  0
    2.1766   -0.0988    0.2178 C   0  0  0  0  0  0  0  0  0  0  0  0
    2.8258    0.9513   -0.4677 N   0  0  0  0  0  0  0  0  0  0  0  0
    0.7813   -0.4171   -0.1230 C   0  0  1  0  0  0  0  0  0  0  0  0
    0.6695   -0.7831   -1.4768 O   0  0  0  0  0  0  0  0  0  0  0  0
    0.1509   -1.4284    0.7797 C   0  0  0  0  0  0  0  0  0  0  0  0
   -0.9197   -0.7928    1.4283 O   0  0  0  0  0  0  0  0  0  0  0  0
   -1.3721    0.1021    0.5155 C   0  0  0  0  0  0  0  0  0  0  0  0
   -2.5901    0.8743    0.7559 C   0  0  0  0  0  0  0  0  0  0  0  0
   -3.3342   -0.2060    0.2272 O   0  0  0  0  0  0  0  0  0  0  0  0
   -2.2299   -0.4656   -0.5857 C   0  0  0  0  0  0  0  0  0  0  0  0
   -0.1367    0.8013    0.0432 C   0  0  0  0  0  0  0  0  0  0  0  0
    3.7163   -0.6787    1.4654 H   0  0  0  0  0  0  0  0  0  0  0  0
    3.5390    1.5118    0.0404 H   0  0  0  0  0  0  0  0  0  0  0  0
    2.5682    1.1293   -1.4605 H   0  0  0  0  0  0  0  0  0  0  0  0
    0.4378    0.0155   -2.0461 H   0  0  0  0  0  0  0  0  0  0  0  0
   -0.1993   -2.3480    0.2310 H   0  0  0  0  0  0  0  0  0  0  0  0
    0.8931   -1.7053    1.5614 H   0  0  0  0  0  0  0  0  0  0  0  0
   -2.6956    1.7274    0.0523 H   0  0  0  0  0  0  0  0  0  0  0  0
   -2.8636    1.1402    1.7930 H   0  0  0  0  0  0  0  0  0  0  0  0
   -2.0041   -1.5247   -0.7677 H   0  0  0  0  0  0  0  0  0  0  0  0
   -2.2076    0.2083   -1.4615 H   0  0  0  0  0  0  0  0  0  0  0  0
    0.2937    1.4248    0.8256 H   0  0  0  0  0  0  0  0  0  0  0  0
   -0.2481    1.3645   -0.8798 H   0  0  0  0  0  0  0  0  0  0  0  0
  1  2  2  3
  2  3  1  0
  2  4  1  0
  4  5  1  6
  4  6  1  0
  6  7  1  0
  7  8  1  0
  8  9  1  0
  9 10  1  0
 10 11  1  0
  8 12  1  0
 12  4  1  0
 11  8  1  0
  1 13  1  0
  3 14  1  0
  3 15  1  0
  5 16  1  0
  6 17  1  0
  6 18  1  0
  9 19  1  0
  9 20  1  0
 11 21  1  0
 11 22  1  0
 12 23  1  0
 12 24  1  0
M  END
$$$$

     RDKit          3D

 24 25  0  0  0  0  0  0  0  0999 V2000
    2.1225    1.8320   -0.5631 N   0  0  0  0  0  0  0  0  0  0  0  0
    1.9658    0.5609   -0.3888 C   0  0  0  0  0  0  0  0  0  0  0  0
    2.7894   -0.3799   -1.1049 N   0  0  0  0  0  0  0  0  0  0  0  0
    0.9622   -0.0277    0.5289 C   0  0  1  0  0  0  0  0  0  0  0  0
    1.5999   -0.8110    1.5076 O   0  0  0  0  0  0  0  0  0  0  0  0
    0.0731    0.9719    1.1842 C   0  0  0  0  0  0  0  0  0  0  0  0
   -0.8862    1.2685    0.2005 O   0  0  0  0  0  0  0  0  0  0  0  0
   -1.2717   -0.0087   -0.1874 C   0  0  0  0  0  0  0  0  0  0  0  0
   -2.2419   -0.1038   -1.3126 C   0  0  0  0  0  0  0  0  0  0  0  0
   -3.2852    0.0137   -0.3729 O   0  0  0  0  0  0  0  0  0  0  0  0
   -2.4427   -0.5801    0.5665 C   0  0  0  0  0  0  0  0  0  0  0  0
   -0.0478   -0.8660   -0.2591 C   0  0  0  0  0  0  0  0  0  0  0  0
    1.5262    2.5042   -0.0444 H   0  0  0  0  0  0  0  0  0  0  0  0
    3.0922   -1.2578   -0.6226 H   0  0  0  0  0  0  0  0  0  0  0  0
    3.0919   -0.2168   -2.0808 H   0  0  0  0  0  0  0  0  0  0  0  0
    2.1693   -0.1876    2.0147 H   0  0  0  0  0  0  0  0  0  0  0  0
    0.5526    1.8463    1.6150 H   0  0  0  0  0  0  0  0  0  0  0  0
   -0.4648    0.4538    2.0087 H   0  0  0  0  0  0  0  0  0  0  0  0
   -2.2409   -1.1114   -1.7742 H   0  0  0  0  0  0  0  0  0  0  0  0
   -2.1960    0.7413   -2.0178 H   0  0  0  0  0  0  0  0  0  0  0  0
   -2.4011   -1.6889    0.5325 H   0  0  0  0  0  0  0  0  0  0  0  0
   -2.5835   -0.1609    1.5952 H   0  0  0  0  0  0  0  0  0  0  0  0
    0.2997   -0.9852   -1.3049 H   0  0  0  0  0  0  0  0  0  0  0  0
   -0.1826   -1.8071    0.2797 H   0  0  0  0  0  0  0  0  0  0  0  0
  1  2  2  3
  2  3  1  0
  2  4  1  0
  4  5  1  1
  4  6  1  0
  6  7  1  0
  7  8  1  0
  8  9  1  0
  9 10  1  0
 10 11  1  0
  8 12  1  0
 12  4  1  0
 11  8  1  0
  1 13  1  0
  3 14  1  0
  3 15  1  0
  5 16  1  0
  6 17  1  0
  6 18  1  0
  9 19  1  0
  9 20  1  0
 11 21  1  0
 11 22  1  0
 12 23  1  0
 12 24  1  0
M  END
$$$$

     RDKit          3D

 24 25  0  0  0  0  0  0  0  0999 V2000
    2.8845   -1.4080   -0.7658 N   0  0  0  0  0  0  0  0  0  0  0  0
    2.1333   -0.4420   -0.3681 C   0  0  0  0  0  0  0  0  0  0  0  0
    2.7069    0.8464   -0.3056 N   0  0  0  0  0  0  0  0  0  0  0  0
    0.7228   -0.7028    0.0038 C   0  0  1  0  0  0  0  0  0  0  0  0
    0.4026   -2.0498   -0.1440 O   0  0  0  0  0  0  0  0  0  0  0  0
    0.4633   -0.2164    1.4126 C   0  0  0  0  0  0  0  0  0  0  0  0
   -0.3607    0.8918    1.3173 O   0  0  0  0  0  0  0  0  0  0  0  0
   -1.1800    0.6345    0.2538 C   0  0  0  0  0  0  0  0  0  0  0  0
   -2.3816   -0.2134    0.5000 C   0  0  0  0  0  0  0  0  0  0  0  0
   -3.1002    0.9695    0.7764 O   0  0  0  0  0  0  0  0  0  0  0  0
   -2.2147    1.6150   -0.1147 C   0  0  0  0  0  0  0  0  0  0  0  0
   -0.2308    0.1725   -0.8132 C   0  0  0  0  0  0  0  0  0  0  0  0
    2.5258   -2.3944   -0.8375 H   0  0  0  0  0  0  0  0  0  0  0  0
    3.3850    1.1332    0.4249 H   0  0  0  0  0  0  0  0  0  0  0  0
    2.4364    1.5417   -1.0272 H   0  0  0  0  0  0  0  0  0  0  0  0
    0.6438   -2.4801    0.7300 H   0  0  0  0  0  0  0  0  0  0  0  0
   -0.1487   -1.0173    1.9138 H   0  0  0  0  0  0  0  0  0  0  0  0
    1.3996   -0.0184    1.9639 H   0  0  0  0  0  0  0  0  0  0  0  0
   -2.7674   -0.6394   -0.4524 H   0  0  0  0  0  0  0  0  0  0  0  0
   -2.3153   -0.9059    1.3450 H   0  0  0  0  0  0  0  0  0  0  0  0
   -2.0565    2.6712    0.0929 H   0  0  0  0  0  0  0  0  0  0  0  0
   -2.5947    1.4547   -1.1441 H   0  0  0  0  0  0  0  0  0  0  0  0
    0.3355    1.0227   -1.2298 H   0  0  0  0  0  0  0  0  0  0  0  0
   -0.6888   -0.4654   -1.5808 H   0  0  0  0  0  0  0  0  0  0  0  0
  1  2  2  3
  2  3  1  0
  2  4  1  0
  4  5  1  1
  4  6  1  0
  6  7  1  0
  7  8  1  0
  8  9  1  0
  9 10  1  0
 10 11  1  0
  8 12  1  0
 12  4  1  0
 11  8  1  0
  1 13  1  0
  3 14  1  0
  3 15  1  0
  5 16  1  0
  6 17  1  0
  6 18  1  0
  9 19  1  0
  9 20  1  0
 11 21  1  0
 11 22  1  0
 12 23  1  0
 12 24  1  0
M  END
$$$$

     RDKit          3D

 24 25  0  0  0  0  0  0  0  0999 V2000
    2.8764   -0.5197   -1.0556 N   0  0  0  0  0  0  0  0  0  0  0  0
    2.1600   -0.3363   -0.0034 C   0  0  0  0  0  0  0  0  0  0  0  0
    2.5965   -0.9197    1.2120 N   0  0  0  0  0  0  0  0  0  0  0  0
    0.9268    0.4420   -0.0139 C   0  0  1  0  0  0  0  0  0  0  0  0
    1.0019    1.5267    0.8479 O   0  0  0  0  0  0  0  0  0  0  0  0
    0.4446    0.8204   -1.3831 C   0  0  0  0  0  0  0  0  0  0  0  0
   -0.8978    1.0942   -1.1677 O   0  0  0  0  0  0  0  0  0  0  0  0
   -1.3808    0.2103   -0.2430 C   0  0  0  0  0  0  0  0  0  0  0  0
   -2.5064   -0.6884   -0.6945 C   0  0  0  0  0  0  0  0  0  0  0  0
   -3.3941    0.0703    0.0699 O   0  0  0  0  0  0  0  0  0  0  0  0
   -2.3962    0.7745    0.7273 C   0  0  0  0  0  0  0  0  0  0  0  0
   -0.2234   -0.4843    0.4119 C   0  0  0  0  0  0  0  0  0  0  0  0
    3.7512   -1.0716   -1.0493 H   0  0  0  0  0  0  0  0  0  0  0  0
    3.0563   -0.3531    1.9389 H   0  0  0  0  0  0  0  0  0  0  0  0
    2.4434   -1.9348    1.3571 H   0  0  0  0  0  0  0  0  0  0  0  0
    0.1102    1.7625    1.2206 H   0  0  0  0  0  0  0  0  0  0  0  0
    0.9786    1.6924   -1.7935 H   0  0  0  0  0  0  0  0  0  0  0  0
    0.5711   -0.0495   -2.0405 H   0  0  0  0  0  0  0  0  0  0  0  0
   -2.3458   -1.7105   -0.3136 H   0  0  0  0  0  0  0  0  0  0  0  0
   -2.7285   -0.6350   -1.7980 H   0  0  0  0  0  0  0  0  0  0  0  0
   -2.1661    0.4381    1.7570 H   0  0  0  0  0  0  0  0  0  0  0  0
   -2.5259    1.8617    0.6059 H   0  0  0  0  0  0  0  0  0  0  0  0
   -0.2979   -0.5449    1.5039 H   0  0  0  0  0  0  0  0  0  0  0  0
   -0.0541   -1.4453   -0.0962 H   0  0  0  0  0  0  0  0  0  0  0  0
  1  2  2  3
  2  3  1  0
  2  4  1  0
  4  5  1  1
  4  6  1  0
  6  7  1  0
  7  8  1  0
  8  9  1  0
  9 10  1  0
 10 11  1  0
  8 12  1  0
 12  4  1  0
 11  8  1  0
  1 13  1  0
  3 14  1  0
  3 15  1  0
  5 16  1  0
  6 17  1  0
  6 18  1  0
  9 19  1  0
  9 20  1  0
 11 21  1  0
 11 22  1  0
 12 23  1  0
 12 24  1  0
M  END
$$$$

     RDKit          3D

 24 25  0  0  0  0  0  0  0  0999 V2000
    2.8304   -1.0472    0.5146 N   0  0  0  0  0  0  0  0  0  0  0  0
    2.2194    0.0221    0.1678 C   0  0  0  0  0  0  0  0  0  0  0  0
    2.8533    1.2682    0.3646 N   0  0  0  0  0  0  0  0  0  0  0  0
    0.8941   -0.0254   -0.4207 C   0  0  1  0  0  0  0  0  0  0  0  0
    0.8352    0.5261   -1.7035 O   0  0  0  0  0  0  0  0  0  0  0  0
    0.3272   -1.4255   -0.5258 C   0  0  0  0  0  0  0  0  0  0  0  0
   -1.0153   -1.1473   -0.7990 O   0  0  0  0  0  0  0  0  0  0  0  0
   -1.3960   -0.1259    0.0231 C   0  0  0  0  0  0  0  0  0  0  0  0
   -2.4509   -0.3925    1.0342 C   0  0  0  0  0  0  0  0  0  0  0  0
   -2.9654    0.8974    0.7722 O   0  0  0  0  0  0  0  0  0  0  0  0
   -2.4253    0.8348   -0.5132 C   0  0  0  0  0  0  0  0  0  0  0  0
   -0.1742    0.6133    0.4795 C   0  0  0  0  0  0  0  0  0  0  0  0
    2.3956   -1.9680    0.3841 H   0  0  0  0  0  0  0  0  0  0  0  0
    2.9916    1.9856   -0.3808 H   0  0  0  0  0  0  0  0  0  0  0  0
    3.2113    1.4988    1.3132 H   0  0  0  0  0  0  0  0  0  0  0  0
    1.1636   -0.1792   -2.3313 H   0  0  0  0  0  0  0  0  0  0  0  0
    0.3572   -1.9463    0.4685 H   0  0  0  0  0  0  0  0  0  0  0  0
    0.7948   -2.0176   -1.3146 H   0  0  0  0  0  0  0  0  0  0  0  0
   -2.1391   -0.5396    2.0787 H   0  0  0  0  0  0  0  0  0  0  0  0
   -3.1513   -1.1897    0.6630 H   0  0  0  0  0  0  0  0  0  0  0  0
   -3.0778    0.4673   -1.3021 H   0  0  0  0  0  0  0  0  0  0  0  0
   -2.0104    1.8532   -0.7656 H   0  0  0  0  0  0  0  0  0  0  0  0
   -0.1889    1.6892    0.2794 H   0  0  0  0  0  0  0  0  0  0  0  0
    0.1210    0.3485    1.5135 H   0  0  0  0  0  0  0  0  0  0  0  0
  1  2  2  3
  2  3  1  0
  2  4  1  0
  4  5  1  6
  4  6  1  0
  6  7  1  0
  7  8  1  0
  8  9  1  0
  9 10  1  0
 10 11  1  0
  8 12  1  0
 12  4  1  0
 11  8  1  0
  1 13  1  0
  3 14  1  0
  3 15  1  0
  5 16  1  0
  6 17  1  0
  6 18  1  0
  9 19  1  0
  9 20  1  0
 11 21  1  0
 11 22  1  0
 12 23  1  0
 12 24  1  0
M  END
$$$$

     RDKit          3D

 24 25  0  0  0  0  0  0  0  0999 V2000
    1.9660   -0.5329    1.9375 N   0  0  0  0  0  0  0  0  0  0  0  0
    2.0292   -0.2692    0.6992 C   0  0  0  0  0  0  0  0  0  0  0  0
    3.2505   -0.4423   -0.0083 N   0  0  0  0  0  0  0  0  0  0  0  0
    0.8564    0.2219   -0.0529 C   0  0  1  0  0  0  0  0  0  0  0  0
    1.0621    1.4600   -0.6193 O   0  0  0  0  0  0  0  0  0  0  0  0
    0.4077   -0.7851   -1.1109 C   0  0  0  0  0  0  0  0  0  0  0  0
   -0.8670   -0.3072   -1.4120 O   0  0  0  0  0  0  0  0  0  0  0  0
   -1.4603    0.0917   -0.2520 C   0  0  0  0  0  0  0  0  0  0  0  0
   -2.3608    1.3002   -0.3340 C   0  0  0  0  0  0  0  0  0  0  0  0
   -3.1977    0.6802    0.6029 O   0  0  0  0  0  0  0  0  0  0  0  0
   -2.7182   -0.5736    0.1724 C   0  0  0  0  0  0  0  0  0  0  0  0
   -0.3949    0.2670    0.7988 C   0  0  0  0  0  0  0  0  0  0  0  0
    2.7847   -0.8788    2.4764 H   0  0  0  0  0  0  0  0  0  0  0  0
    4.1332   -0.7790    0.4692 H   0  0  0  0  0  0  0  0  0  0  0  0
    3.3504   -0.2508   -1.0277 H   0  0  0  0  0  0  0  0  0  0  0  0
    1.3041    1.3743   -1.5719 H   0  0  0  0  0  0  0  0  0  0  0  0
    0.3452   -1.7741   -0.6436 H   0  0  0  0  0  0  0  0  0  0  0  0
    1.0733   -0.7473   -1.9931 H   0  0  0  0  0  0  0  0  0  0  0  0
   -2.8852    1.4341   -1.2931 H   0  0  0  0  0  0  0  0  0  0  0  0
   -1.8496    2.2070    0.0640 H   0  0  0  0  0  0  0  0  0  0  0  0
   -2.6343   -1.3223    1.0050 H   0  0  0  0  0  0  0  0  0  0  0  0
   -3.2983   -0.9238   -0.7022 H   0  0  0  0  0  0  0  0  0  0  0  0
   -0.5045    1.1953    1.3669 H   0  0  0  0  0  0  0  0  0  0  0  0
   -0.3922   -0.6453    1.4286 H   0  0  0  0  0  0  0  0  0  0  0  0
  1  2  2  3
  2  3  1  0
  2  4  1  0
  4  5  1  6
  4  6  1  0
  6  7  1  0
  7  8  1  0
  8  9  1  0
  9 10  1  0
 10 11  1  0
  8 12  1  0
 12  4  1  0
 11  8  1  0
  1 13  1  0
  3 14  1  0
  3 15  1  0
  5 16  1  0
  6 17  1  0
  6 18  1  0
  9 19  1  0
  9 20  1  0
 11 21  1  0
 11 22  1  0
 12 23  1  0
 12 24  1  0
M  END
$$$$

     RDKit          3D

 24 25  0  0  0  0  0  0  0  0999 V2000
    2.1134    1.5879   -0.6892 N   0  0  0  0  0  0  0  0  0  0  0  0
    2.0999    0.3758   -0.2640 C   0  0  0  0  0  0  0  0  0  0  0  0
    3.2617   -0.3443    0.0915 N   0  0  0  0  0  0  0  0  0  0  0  0
    0.7941   -0.3098   -0.1376 C   0  0  1  0  0  0  0  0  0  0  0  0
    0.7550   -1.4514   -0.9445 O   0  0  0  0  0  0  0  0  0  0  0  0
    0.4625   -0.6994    1.2748 C   0  0  0  0  0  0  0  0  0  0  0  0
   -0.8835   -0.5595    1.4647 O   0  0  0  0  0  0  0  0  0  0  0  0
   -1.4402    0.1182    0.4261 C   0  0  0  0  0  0  0  0  0  0  0  0
   -2.5550   -0.6413   -0.2417 C   0  0  0  0  0  0  0  0  0  0  0  0
   -3.4097   -0.1072    0.7243 O   0  0  0  0  0  0  0  0  0  0  0  0
   -2.5831    1.0332    0.7105 C   0  0  0  0  0  0  0  0  0  0  0  0
   -0.3593    0.6289   -0.4718 C   0  0  0  0  0  0  0  0  0  0  0  0
    2.9901    2.1461   -0.8086 H   0  0  0  0  0  0  0  0  0  0  0  0
    3.6246   -1.1036   -0.5244 H   0  0  0  0  0  0  0  0  0  0  0  0
    3.7394   -0.0931    0.9822 H   0  0  0  0  0  0  0  0  0  0  0  0
    0.9614   -2.2641   -0.3961 H   0  0  0  0  0  0  0  0  0  0  0  0
    0.9890    0.0004    1.9673 H   0  0  0  0  0  0  0  0  0  0  0  0
    0.7534   -1.7467    1.5184 H   0  0  0  0  0  0  0  0  0  0  0  0
   -2.8596   -0.2932   -1.2381 H   0  0  0  0  0  0  0  0  0  0  0  0
   -2.4498   -1.7461   -0.2124 H   0  0  0  0  0  0  0  0  0  0  0  0
   -2.4879    1.5284    1.6940 H   0  0  0  0  0  0  0  0  0  0  0  0
   -2.8607    1.6625   -0.1336 H   0  0  0  0  0  0  0  0  0  0  0  0
   -0.6042    0.6496   -1.5318 H   0  0  0  0  0  0  0  0  0  0  0  0
   -0.0516    1.6287   -0.0945 H   0  0  0  0  0  0  0  0  0  0  0  0
  1  2  2  3
  2  3  1  0
  2  4  1  0
  4  5  1  6
  4  6  1  0
  6  7  1  0
  7  8  1  0
  8  9  1  0
  9 10  1  0
 10 11  1  0
  8 12  1  0
 12  4  1  0
 11  8  1  0
  1 13  1  0
  3 14  1  0
  3 15  1  0
  5 16  1  0
  6 17  1  0
  6 18  1  0
  9 19  1  0
  9 20  1  0
 11 21  1  0
 11 22  1  0
 12 23  1  0
 12 24  1  0
M  END
$$$$

     RDKit          3D

 24 25  0  0  0  0  0  0  0  0999 V2000
    2.0111    1.4386    0.8062 N   0  0  0  0  0  0  0  0  0  0  0  0
    1.9966    0.3175    0.2003 C   0  0  0  0  0  0  0  0  0  0  0  0
    3.1517   -0.4918    0.1893 N   0  0  0  0  0  0  0  0  0  0  0  0
    0.7784   -0.1349   -0.4875 C   0  0  1  0  0  0  0  0  0  0  0  0
    1.0863   -0.3072   -1.8380 O   0  0  0  0  0  0  0  0  0  0  0  0
    0.2322   -1.4199    0.0739 C   0  0  0  0  0  0  0  0  0  0  0  0
   -0.9689   -1.1397    0.6744 O   0  0  0  0  0  0  0  0  0  0  0  0
   -1.4667    0.0321    0.1826 C   0  0  0  0  0  0  0  0  0  0  0  0
   -2.4012    0.7076    1.1551 C   0  0  0  0  0  0  0  0  0  0  0  0
   -3.3500    0.8381    0.1375 O   0  0  0  0  0  0  0  0  0  0  0  0
   -2.6431   -0.0258   -0.7285 C   0  0  0  0  0  0  0  0  0  0  0  0
   -0.3253    0.8647   -0.3157 C   0  0  0  0  0  0  0  0  0  0  0  0
    2.8736    1.7489    1.2878 H   0  0  0  0  0  0  0  0  0  0  0  0
    4.0095   -0.1948   -0.3529 H   0  0  0  0  0  0  0  0  0  0  0  0
    3.1854   -1.3964    0.7131 H   0  0  0  0  0  0  0  0  0  0  0  0
    1.8466   -0.9340   -1.8970 H   0  0  0  0  0  0  0  0  0  0  0  0
    0.9081   -1.8422    0.8732 H   0  0  0  0  0  0  0  0  0  0  0  0
    0.1233   -2.1968   -0.7225 H   0  0  0  0  0  0  0  0  0  0  0  0
   -2.0318    1.6541    1.5800 H   0  0  0  0  0  0  0  0  0  0  0  0
   -2.7456   -0.0058    1.9560 H   0  0  0  0  0  0  0  0  0  0  0  0
   -2.4813    0.5468   -1.6881 H   0  0  0  0  0  0  0  0  0  0  0  0
   -3.1234   -0.9974   -0.8907 H   0  0  0  0  0  0  0  0  0  0  0  0
   -0.5985    1.2665   -1.3132 H   0  0  0  0  0  0  0  0  0  0  0  0
   -0.0668    1.6718    0.4046 H   0  0  0  0  0  0  0  0  0  0  0  0
  1  2  2  3
  2  3  1  0
  2  4  1  0
  4  5  1  6
  4  6  1  0
  6  7  1  0
  7  8  1  0
  8  9  1  0
  9 10  1  0
 10 11  1  0
  8 12  1  0
 12  4  1  0
 11  8  1  0
  1 13  1  0
  3 14  1  0
  3 15  1  0
  5 16  1  0
  6 17  1  0
  6 18  1  0
  9 19  1  0
  9 20  1  0
 11 21  1  0
 11 22  1  0
 12 23  1  0
 12 24  1  0
M  END
$$$$
