
     RDKit          3D

 27 28  0  0  0  0  0  0  0  0999 V2000
   -3.3607    0.7539    0.9586 N   0  0  0  0  0  0  0  0  0  0  0  0
   -3.1088   -0.4643    0.2108 C   0  0  1  0  0  0  0  0  0  0  0  0
   -2.5074   -0.1435   -1.1499 C   0  0  0  0  0  0  0  0  0  0  0  0
   -1.2121   -0.3019   -0.5195 N   0  0  0  0  0  0  0  0  0  0  0  0
    0.1417    0.1337   -0.7355 C   0  0  0  0  0  0  0  0  0  0  0  0
    0.7165    0.8129    0.5137 C   0  0  0  0  0  0  0  0  0  0  0  0
    2.0026    0.0325    0.2398 C   0  0  0  0  0  0  0  0  0  0  0  0
    2.5136   -0.4854    1.4080 O   0  0  0  0  0  0  0  0  0  0  0  0
    2.9811    0.9100   -0.4730 C   0  0  0  0  0  0  0  0  0  0  0  0
    4.1463    0.2738   -0.8340 O   0  0  0  0  0  0  0  0  0  0  0  0
    1.1989   -0.9114   -0.5852 C   0  0  0  0  0  0  0  0  0  0  0  0
   -1.8244   -1.1118    0.4711 C   0  0  0  0  0  0  0  0  0  0  0  0
   -1.3814   -2.0019    1.2252 O   0  0  0  0  0  0  0  0  0  0  0  0
   -3.7986    0.4939    1.8623 H   0  0  0  0  0  0  0  0  0  0  0  0
   -3.9641    1.3959    0.4040 H   0  0  0  0  0  0  0  0  0  0  0  0
   -3.9944   -1.1097    0.0965 H   0  0  0  0  0  0  0  0  0  0  0  0
   -2.6744   -0.9255   -1.8987 H   0  0  0  0  0  0  0  0  0  0  0  0
   -2.7267    0.8921   -1.4879 H   0  0  0  0  0  0  0  0  0  0  0  0
    0.2799    0.7769   -1.6299 H   0  0  0  0  0  0  0  0  0  0  0  0
    0.8185    1.9097    0.4185 H   0  0  0  0  0  0  0  0  0  0  0  0
    0.1879    0.4481    1.4021 H   0  0  0  0  0  0  0  0  0  0  0  0
    3.2765   -1.1030    1.1895 H   0  0  0  0  0  0  0  0  0  0  0  0
    3.2606    1.7323    0.2350 H   0  0  0  0  0  0  0  0  0  0  0  0
    2.4997    1.4352   -1.3430 H   0  0  0  0  0  0  0  0  0  0  0  0
    4.0335   -0.3783   -1.5678 H   0  0  0  0  0  0  0  0  0  0  0  0
    1.6572   -1.3029   -1.5079 H   0  0  0  0  0  0  0  0  0  0  0  0
    0.8386   -1.7612    0.0481 H   0  0  0  0  0  0  0  0  0  0  0  0
  1  2  1  0
  2  3  1  0
  3  4  1  0
  4  5  1  0
  5  6  1  0
  6  7  1  0
  7  8  1  0
  7  9  1  0
  9 10  1  0
  7 11  1  0
  4 12  1  0
 12 13  2  0
 12  2  1  0
 11  5  1  0
  1 14  1  0
  1 15  1  0
  2 16  1  6
  3 17  1  0
  3 18  1  0
  5 19  1  0
  6 20  1  0
  6 21  1  0
  8 22  1  0
  9 23  1  0
  9 24  1  0
 10 25  1  0
 11 26  1  0
 11 27  1  0
M  END
$$$$

     RDKit          3D

 27 28  0  0  0  0  0  0  0  0999 V2000
   -4.3377   -0.3713    0.1924 N   0  0  0  0  0  0  0  0  0  0  0  0
   -3.0067   -0.3682   -0.3942 C   0  0  1  0  0  0  0  0  0  0  0  0
   -2.0747    0.5520    0.3505 C   0  0  0  0  0  0  0  0  0  0  0  0
   -1.0704   -0.4704    0.1337 N   0  0  0  0  0  0  0  0  0  0  0  0
    0.3481   -0.5303   -0.0022 C   0  0  0  0  0  0  0  0  0  0  0  0
    0.9325    0.4097   -1.0531 C   0  0  0  0  0  0  0  0  0  0  0  0
    2.0767    0.6464   -0.0913 C   0  0  0  0  0  0  0  0  0  0  0  0
    2.5800    1.9294   -0.0631 O   0  0  0  0  0  0  0  0  0  0  0  0
    3.1706   -0.4015   -0.1412 C   0  0  0  0  0  0  0  0  0  0  0  0
    3.9781   -0.2825   -1.2531 O   0  0  0  0  0  0  0  0  0  0  0  0
    1.1139    0.3080    1.0315 C   0  0  0  0  0  0  0  0  0  0  0  0
   -2.1137   -1.4321    0.1102 C   0  0  0  0  0  0  0  0  0  0  0  0
   -2.2438   -2.6654    0.3930 O   0  0  0  0  0  0  0  0  0  0  0  0
   -4.3228   -0.8844    1.0998 H   0  0  0  0  0  0  0  0  0  0  0  0
   -4.5910    0.6500    0.3344 H   0  0  0  0  0  0  0  0  0  0  0  0
   -2.9808   -0.2442   -1.4860 H   0  0  0  0  0  0  0  0  0  0  0  0
   -2.3083    0.6892    1.4081 H   0  0  0  0  0  0  0  0  0  0  0  0
   -1.7823    1.4687   -0.2015 H   0  0  0  0  0  0  0  0  0  0  0  0
    0.7449   -1.5374   -0.1612 H   0  0  0  0  0  0  0  0  0  0  0  0
    0.3097    1.3220   -1.1307 H   0  0  0  0  0  0  0  0  0  0  0  0
    1.2064   -0.0683   -1.9975 H   0  0  0  0  0  0  0  0  0  0  0  0
    2.1806    2.4996    0.6365 H   0  0  0  0  0  0  0  0  0  0  0  0
    2.7800   -1.4184    0.0154 H   0  0  0  0  0  0  0  0  0  0  0  0
    3.8282   -0.1924    0.7502 H   0  0  0  0  0  0  0  0  0  0  0  0
    3.5344   -0.5349   -2.0924 H   0  0  0  0  0  0  0  0  0  0  0  0
    1.5352   -0.2674    1.8576 H   0  0  0  0  0  0  0  0  0  0  0  0
    0.5131    1.1942    1.2899 H   0  0  0  0  0  0  0  0  0  0  0  0
  1  2  1  0
  2  3  1  0
  3  4  1  0
  4  5  1  0
  5  6  1  0
  6  7  1  0
  7  8  1  0
  7  9  1  0
  9 10  1  0
  7 11  1  0
  4 12  1  0
 12 13  2  0
 12  2  1  0
 11  5  1  0
  1 14  1  0
  1 15  1  0
  2 16  1  6
  3 17  1  0
  3 18  1  0
  5 19  1  0
  6 20  1  0
  6 21  1  0
  8 22  1  0
  9 23  1  0
  9 24  1  0
 10 25  1  0
 11 26  1  0
 11 27  1  0
M  END
$$$$

     RDKit          3D

 27 28  0  0  0  0  0  0  0  0999 V2000
    2.8912    1.3857    0.3001 N   0  0  0  0  0  0  0  0  0  0  0  0
    3.0686    0.1735   -0.4676 C   0  0  1  0  0  0  0  0  0  0  0  0
    2.6339   -1.0310    0.3752 C   0  0  0  0  0  0  0  0  0  0  0  0
    1.2764   -0.6049   -0.0006 N   0  0  0  0  0  0  0  0  0  0  0  0
   -0.0228   -0.6396    0.5951 C   0  0  0  0  0  0  0  0  0  0  0  0
   -0.7695    0.6752    0.6408 C   0  0  0  0  0  0  0  0  0  0  0  0
   -2.0272   -0.1069    0.2588 C   0  0  0  0  0  0  0  0  0  0  0  0
   -2.7234   -0.5401    1.3766 O   0  0  0  0  0  0  0  0  0  0  0  0
   -2.8870    0.6210   -0.7350 C   0  0  0  0  0  0  0  0  0  0  0  0
   -3.4220    1.7374   -0.0736 O   0  0  0  0  0  0  0  0  0  0  0  0
   -1.1084   -1.1604   -0.3239 C   0  0  0  0  0  0  0  0  0  0  0  0
    1.8402   -0.1487   -1.2117 C   0  0  0  0  0  0  0  0  0  0  0  0
    1.4469   -0.0668   -2.3817 O   0  0  0  0  0  0  0  0  0  0  0  0
    2.9096    1.2312    1.3140 H   0  0  0  0  0  0  0  0  0  0  0  0
    3.5063    2.1666   -0.0116 H   0  0  0  0  0  0  0  0  0  0  0  0
    4.0191    0.0561   -0.9823 H   0  0  0  0  0  0  0  0  0  0  0  0
    2.9269   -1.9591   -0.1293 H   0  0  0  0  0  0  0  0  0  0  0  0
    2.8679   -0.9373    1.4353 H   0  0  0  0  0  0  0  0  0  0  0  0
   -0.0386   -1.1043    1.6049 H   0  0  0  0  0  0  0  0  0  0  0  0
   -0.8317    1.1389    1.6401 H   0  0  0  0  0  0  0  0  0  0  0  0
   -0.4682    1.4171   -0.1198 H   0  0  0  0  0  0  0  0  0  0  0  0
   -2.7922   -1.5225    1.3268 H   0  0  0  0  0  0  0  0  0  0  0  0
   -2.2897    0.9605   -1.5888 H   0  0  0  0  0  0  0  0  0  0  0  0
   -3.6765   -0.0351   -1.1074 H   0  0  0  0  0  0  0  0  0  0  0  0
   -4.0565    1.4991    0.6231 H   0  0  0  0  0  0  0  0  0  0  0  0
   -1.4139   -2.2088   -0.1131 H   0  0  0  0  0  0  0  0  0  0  0  0
   -0.8596   -0.9967   -1.3937 H   0  0  0  0  0  0  0  0  0  0  0  0
  1  2  1  0
  2  3  1  0
  3  4  1  0
  4  5  1  0
  5  6  1  0
  6  7  1  0
  7  8  1  0
  7  9  1  0
  9 10  1  0
  7 11  1  0
  4 12  1  0
 12 13  2  0
 12  2  1  0
 11  5  1  0
  1 14  1  0
  1 15  1  0
  2 16  1  6
  3 17  1  0
  3 18  1  0
  5 19  1  0
  6 20  1  0
  6 21  1  0
  8 22  1  0
  9 23  1  0
  9 24  1  0
 10 25  1  0
 11 26  1  0
 11 27  1  0
M  END
$$$$

     RDKit          3D

 27 28  0  0  0  0  0  0  0  0999 V2000
    4.2435    0.4250    0.0682 N   0  0  0  0  0  0  0  0  0  0  0  0
    2.8452    0.5096   -0.2436 C   0  0  1  0  0  0  0  0  0  0  0  0
    2.3385   -0.7530   -0.9580 C   0  0  0  0  0  0  0  0  0  0  0  0
    1.1118   -0.5000   -0.2328 N   0  0  0  0  0  0  0  0  0  0  0  0
   -0.2601   -0.7388   -0.5349 C   0  0  0  0  0  0  0  0  0  0  0  0
   -1.0403    0.5789   -0.4272 C   0  0  0  0  0  0  0  0  0  0  0  0
   -2.1918   -0.2764    0.1173 C   0  0  0  0  0  0  0  0  0  0  0  0
   -2.9668   -0.7082   -0.9427 O   0  0  0  0  0  0  0  0  0  0  0  0
   -2.9309    0.4001    1.2435 C   0  0  0  0  0  0  0  0  0  0  0  0
   -3.5906    1.5238    0.7964 O   0  0  0  0  0  0  0  0  0  0  0  0
   -1.1229   -1.2585    0.5744 C   0  0  0  0  0  0  0  0  0  0  0  0
    1.9163    0.0439    0.8046 C   0  0  0  0  0  0  0  0  0  0  0  0
    1.7125    0.0140    2.0346 O   0  0  0  0  0  0  0  0  0  0  0  0
    4.5483    1.3590    0.4300 H   0  0  0  0  0  0  0  0  0  0  0  0
    4.7552    0.3246   -0.8592 H   0  0  0  0  0  0  0  0  0  0  0  0
    2.4894    1.4525   -0.6946 H   0  0  0  0  0  0  0  0  0  0  0  0
    2.2731   -0.6585   -2.0435 H   0  0  0  0  0  0  0  0  0  0  0  0
    2.8621   -1.6284   -0.5466 H   0  0  0  0  0  0  0  0  0  0  0  0
   -0.4442   -1.2044   -1.4967 H   0  0  0  0  0  0  0  0  0  0  0  0
   -0.6714    1.2390    0.3947 H   0  0  0  0  0  0  0  0  0  0  0  0
   -1.2489    1.0612   -1.3841 H   0  0  0  0  0  0  0  0  0  0  0  0
   -3.1208    0.0319   -1.5937 H   0  0  0  0  0  0  0  0  0  0  0  0
   -2.2165    0.6266    2.0401 H   0  0  0  0  0  0  0  0  0  0  0  0
   -3.6895   -0.3396    1.6094 H   0  0  0  0  0  0  0  0  0  0  0  0
   -3.3504    1.7832   -0.1363 H   0  0  0  0  0  0  0  0  0  0  0  0
   -0.7930   -1.0215    1.5988 H   0  0  0  0  0  0  0  0  0  0  0  0
   -1.4576   -2.2859    0.3820 H   0  0  0  0  0  0  0  0  0  0  0  0
  1  2  1  0
  2  3  1  0
  3  4  1  0
  4  5  1  0
  5  6  1  0
  6  7  1  0
  7  8  1  0
  7  9  1  0
  9 10  1  0
  7 11  1  0
  4 12  1  0
 12 13  2  0
 12  2  1  0
 11  5  1  0
  1 14  1  0
  1 15  1  0
  2 16  1  6
  3 17  1  0
  3 18  1  0
  5 19  1  0
  6 20  1  0
  6 21  1  0
  8 22  1  0
  9 23  1  0
  9 24  1  0
 10 25  1  0
 11 26  1  0
 11 27  1  0
M  END
$$$$

     RDKit          3D

 27 28  0  0  0  0  0  0  0  0999 V2000
    4.2044    0.4241    0.4021 N   0  0  0  0  0  0  0  0  0  0  0  0
    2.9908    0.2792   -0.3499 C   0  0  1  0  0  0  0  0  0  0  0  0
    2.4132   -1.1120   -0.2087 C   0  0  0  0  0  0  0  0  0  0  0  0
    1.1408   -0.4719   -0.0806 N   0  0  0  0  0  0  0  0  0  0  0  0
   -0.2019   -0.8289   -0.3272 C   0  0  0  0  0  0  0  0  0  0  0  0
   -1.1809   -0.5253    0.8147 C   0  0  0  0  0  0  0  0  0  0  0  0
   -2.2021   -0.3494   -0.3031 C   0  0  0  0  0  0  0  0  0  0  0  0
   -2.6499   -1.5824   -0.7221 O   0  0  0  0  0  0  0  0  0  0  0  0
   -3.2695    0.6717   -0.0269 C   0  0  0  0  0  0  0  0  0  0  0  0
   -2.6781    1.8486    0.3812 O   0  0  0  0  0  0  0  0  0  0  0  0
   -1.0237    0.1941   -1.1215 C   0  0  0  0  0  0  0  0  0  0  0  0
    1.7900    0.6875    0.4035 C   0  0  0  0  0  0  0  0  0  0  0  0
    1.4071    1.6169    1.1598 O   0  0  0  0  0  0  0  0  0  0  0  0
    4.9707    0.8877   -0.1387 H   0  0  0  0  0  0  0  0  0  0  0  0
    4.0622    0.9540    1.2700 H   0  0  0  0  0  0  0  0  0  0  0  0
    3.0600    0.6566   -1.3859 H   0  0  0  0  0  0  0  0  0  0  0  0
    2.5907   -1.6770   -1.1442 H   0  0  0  0  0  0  0  0  0  0  0  0
    2.7660   -1.6211    0.7004 H   0  0  0  0  0  0  0  0  0  0  0  0
   -0.4206   -1.8251   -0.7141 H   0  0  0  0  0  0  0  0  0  0  0  0
   -1.3689   -1.3580    1.4889 H   0  0  0  0  0  0  0  0  0  0  0  0
   -0.9050    0.4429    1.2544 H   0  0  0  0  0  0  0  0  0  0  0  0
   -2.8240   -2.1564    0.0901 H   0  0  0  0  0  0  0  0  0  0  0  0
   -3.8344    0.8198   -0.9613 H   0  0  0  0  0  0  0  0  0  0  0  0
   -3.9625    0.2403    0.7119 H   0  0  0  0  0  0  0  0  0  0  0  0
   -3.0261    2.5915   -0.1730 H   0  0  0  0  0  0  0  0  0  0  0  0
   -1.0827   -0.0094   -2.1932 H   0  0  0  0  0  0  0  0  0  0  0  0
   -0.7654    1.2020   -0.7923 H   0  0  0  0  0  0  0  0  0  0  0  0
  1  2  1  0
  2  3  1  0
  3  4  1  0
  4  5  1  0
  5  6  1  0
  6  7  1  0
  7  8  1  0
  7  9  1  0
  9 10  1  0
  7 11  1  0
  4 12  1  0
 12 13  2  0
 12  2  1  0
 11  5  1  0
  1 14  1  0
  1 15  1  0
  2 16  1  6
  3 17  1  0
  3 18  1  0
  5 19  1  0
  6 20  1  0
  6 21  1  0
  8 22  1  0
  9 23  1  0
  9 24  1  0
 10 25  1  0
 11 26  1  0
 11 27  1  0
M  END
$$$$

     RDKit          3D

 27 28  0  0  0  0  0  0  0  0999 V2000
    3.6698    0.6266    0.0795 N   0  0  0  0  0  0  0  0  0  0  0  0
    3.1278   -0.6570   -0.2990 C   0  0  1  0  0  0  0  0  0  0  0  0
    2.2519   -1.2526    0.7844 C   0  0  0  0  0  0  0  0  0  0  0  0
    1.1495   -0.6285    0.0993 N   0  0  0  0  0  0  0  0  0  0  0  0
   -0.1645   -0.1976    0.5320 C   0  0  0  0  0  0  0  0  0  0  0  0
   -0.5699    1.1801    0.0506 C   0  0  0  0  0  0  0  0  0  0  0  0
   -1.8877    0.5690   -0.4257 C   0  0  0  0  0  0  0  0  0  0  0  0
   -2.1929    1.0319   -1.6818 O   0  0  0  0  0  0  0  0  0  0  0  0
   -2.9524    0.7800    0.6253 C   0  0  0  0  0  0  0  0  0  0  0  0
   -4.1434    0.1680    0.3287 O   0  0  0  0  0  0  0  0  0  0  0  0
   -1.2090   -0.7683   -0.4082 C   0  0  0  0  0  0  0  0  0  0  0  0
    1.9023   -0.6363   -1.1024 C   0  0  0  0  0  0  0  0  0  0  0  0
    1.6382   -0.6289   -2.3171 O   0  0  0  0  0  0  0  0  0  0  0  0
    4.2889    0.9642   -0.6853 H   0  0  0  0  0  0  0  0  0  0  0  0
    2.8996    1.2930    0.2393 H   0  0  0  0  0  0  0  0  0  0  0  0
    3.9210   -1.3568   -0.6087 H   0  0  0  0  0  0  0  0  0  0  0  0
    2.2720   -2.3521    0.7495 H   0  0  0  0  0  0  0  0  0  0  0  0
    2.4487   -0.8397    1.8088 H   0  0  0  0  0  0  0  0  0  0  0  0
   -0.3724   -0.3809    1.6039 H   0  0  0  0  0  0  0  0  0  0  0  0
   -0.6704    1.9071    0.8641 H   0  0  0  0  0  0  0  0  0  0  0  0
    0.0550    1.5813   -0.7745 H   0  0  0  0  0  0  0  0  0  0  0  0
   -2.9814    0.6161   -2.0897 H   0  0  0  0  0  0  0  0  0  0  0  0
   -2.5637    0.4865    1.6189 H   0  0  0  0  0  0  0  0  0  0  0  0
   -3.1404    1.8770    0.6841 H   0  0  0  0  0  0  0  0  0  0  0  0
   -4.2186   -0.7664    0.6376 H   0  0  0  0  0  0  0  0  0  0  0  0
   -0.8142   -1.0240   -1.4081 H   0  0  0  0  0  0  0  0  0  0  0  0
   -1.7438   -1.5916    0.0597 H   0  0  0  0  0  0  0  0  0  0  0  0
  1  2  1  0
  2  3  1  0
  3  4  1  0
  4  5  1  0
  5  6  1  0
  6  7  1  0
  7  8  1  0
  7  9  1  0
  9 10  1  0
  7 11  1  0
  4 12  1  0
 12 13  2  0
 12  2  1  0
 11  5  1  0
  1 14  1  0
  1 15  1  0
  2 16  1  6
  3 17  1  0
  3 18  1  0
  5 19  1  0
  6 20  1  0
  6 21  1  0
  8 22  1  0
  9 23  1  0
  9 24  1  0
 10 25  1  0
 11 26  1  0
 11 27  1  0
M  END
$$$$

     RDKit          3D

 27 28  0  0  0  0  0  0  0  0999 V2000
    4.3454    0.2537   -0.5350 N   0  0  0  0  0  0  0  0  0  0  0  0
    3.0345    0.4057    0.0475 C   0  0  1  0  0  0  0  0  0  0  0  0
    1.8795    0.1703   -0.9208 C   0  0  0  0  0  0  0  0  0  0  0  0
    1.2091   -0.3992    0.2365 N   0  0  0  0  0  0  0  0  0  0  0  0
   -0.1245   -0.5193    0.7412 C   0  0  0  0  0  0  0  0  0  0  0  0
   -1.1188   -1.0127   -0.3101 C   0  0  0  0  0  0  0  0  0  0  0  0
   -2.1235   -0.1258    0.4260 C   0  0  0  0  0  0  0  0  0  0  0  0
   -2.5901   -0.8061    1.5440 O   0  0  0  0  0  0  0  0  0  0  0  0
   -3.1778    0.4752   -0.4519 C   0  0  0  0  0  0  0  0  0  0  0  0
   -3.8992    1.3858    0.3230 O   0  0  0  0  0  0  0  0  0  0  0  0
   -0.9407    0.7728    0.7293 C   0  0  0  0  0  0  0  0  0  0  0  0
    2.4908   -0.8146    0.6934 C   0  0  0  0  0  0  0  0  0  0  0  0
    2.8466   -1.8180    1.3543 O   0  0  0  0  0  0  0  0  0  0  0  0
    5.0225    0.1591    0.2585 H   0  0  0  0  0  0  0  0  0  0  0  0
    4.5783    1.1617   -0.9981 H   0  0  0  0  0  0  0  0  0  0  0  0
    2.8698    1.3084    0.6502 H   0  0  0  0  0  0  0  0  0  0  0  0
    1.4332    1.0803   -1.3350 H   0  0  0  0  0  0  0  0  0  0  0  0
    2.1688   -0.6122   -1.6567 H   0  0  0  0  0  0  0  0  0  0  0  0
   -0.1921   -1.0452    1.6892 H   0  0  0  0  0  0  0  0  0  0  0  0
   -1.3331   -2.0813   -0.2849 H   0  0  0  0  0  0  0  0  0  0  0  0
   -0.7998   -0.5938   -1.3009 H   0  0  0  0  0  0  0  0  0  0  0  0
   -2.8859   -1.6984    1.2256 H   0  0  0  0  0  0  0  0  0  0  0  0
   -3.8150   -0.3075   -0.8830 H   0  0  0  0  0  0  0  0  0  0  0  0
   -2.6961    1.0042   -1.2910 H   0  0  0  0  0  0  0  0  0  0  0  0
   -4.4815    0.9479    0.9711 H   0  0  0  0  0  0  0  0  0  0  0  0
   -0.9955    1.2937    1.6855 H   0  0  0  0  0  0  0  0  0  0  0  0
   -0.7051    1.4154   -0.1568 H   0  0  0  0  0  0  0  0  0  0  0  0
  1  2  1  0
  2  3  1  0
  3  4  1  0
  4  5  1  0
  5  6  1  0
  6  7  1  0
  7  8  1  0
  7  9  1  0
  9 10  1  0
  7 11  1  0
  4 12  1  0
 12 13  2  0
 12  2  1  0
 11  5  1  0
  1 14  1  0
  1 15  1  0
  2 16  1  1
  3 17  1  0
  3 18  1  0
  5 19  1  0
  6 20  1  0
  6 21  1  0
  8 22  1  0
  9 23  1  0
  9 24  1  0
 10 25  1  0
 11 26  1  0
 11 27  1  0
M  END
$$$$

     RDKit          3D

 27 28  0  0  0  0  0  0  0  0999 V2000
   -3.3848    1.0100   -0.3501 N   0  0  0  0  0  0  0  0  0  0  0  0
   -3.1272   -0.0841    0.5597 C   0  0  1  0  0  0  0  0  0  0  0  0
   -2.5174   -1.2456   -0.2017 C   0  0  0  0  0  0  0  0  0  0  0  0
   -1.2339   -0.6751    0.1385 N   0  0  0  0  0  0  0  0  0  0  0  0
    0.0493   -0.7625   -0.4675 C   0  0  0  0  0  0  0  0  0  0  0  0
    0.7271    0.5945   -0.7109 C   0  0  0  0  0  0  0  0  0  0  0  0
    2.0264   -0.1462   -0.4118 C   0  0  0  0  0  0  0  0  0  0  0  0
    2.4329   -0.8601   -1.5114 O   0  0  0  0  0  0  0  0  0  0  0  0
    3.0795    0.6877    0.2621 C   0  0  0  0  0  0  0  0  0  0  0  0
    2.6173    1.3778    1.3527 O   0  0  0  0  0  0  0  0  0  0  0  0
    1.2011   -1.0134    0.5183 C   0  0  0  0  0  0  0  0  0  0  0  0
   -1.8313   -0.0569    1.2516 C   0  0  0  0  0  0  0  0  0  0  0  0
   -1.4226    0.3432    2.3587 O   0  0  0  0  0  0  0  0  0  0  0  0
   -2.8073    0.9199   -1.2178 H   0  0  0  0  0  0  0  0  0  0  0  0
   -3.1999    1.9264    0.0704 H   0  0  0  0  0  0  0  0  0  0  0  0
   -4.0061   -0.3664    1.1703 H   0  0  0  0  0  0  0  0  0  0  0  0
   -2.7664   -1.2462   -1.2759 H   0  0  0  0  0  0  0  0  0  0  0  0
   -2.6186   -2.2324    0.3058 H   0  0  0  0  0  0  0  0  0  0  0  0
    0.1196   -1.3731   -1.3706 H   0  0  0  0  0  0  0  0  0  0  0  0
    0.4790    1.3000    0.1128 H   0  0  0  0  0  0  0  0  0  0  0  0
    0.6265    0.9795   -1.7237 H   0  0  0  0  0  0  0  0  0  0  0  0
    2.8931   -0.3345   -2.1940 H   0  0  0  0  0  0  0  0  0  0  0  0
    3.9480    0.0494    0.4478 H   0  0  0  0  0  0  0  0  0  0  0  0
    3.4140    1.4472   -0.5027 H   0  0  0  0  0  0  0  0  0  0  0  0
    2.8534    2.3188    1.3210 H   0  0  0  0  0  0  0  0  0  0  0  0
    0.9440   -0.5005    1.4744 H   0  0  0  0  0  0  0  0  0  0  0  0
    1.5044   -2.0574    0.5939 H   0  0  0  0  0  0  0  0  0  0  0  0
  1  2  1  0
  2  3  1  0
  3  4  1  0
  4  5  1  0
  5  6  1  0
  6  7  1  0
  7  8  1  0
  7  9  1  0
  9 10  1  0
  7 11  1  0
  4 12  1  0
 12 13  2  0
 12  2  1  0
 11  5  1  0
  1 14  1  0
  1 15  1  0
  2 16  1  1
  3 17  1  0
  3 18  1  0
  5 19  1  0
  6 20  1  0
  6 21  1  0
  8 22  1  0
  9 23  1  0
  9 24  1  0
 10 25  1  0
 11 26  1  0
 11 27  1  0
M  END
$$$$
