
     RDKit          3D

 29 28  0  0  0  0  0  0  0  0999 V2000
    3.2442   -0.0080   -0.8183 C   0  0  0  0  0  0  0  0  0  0  0  0
    2.7272    0.4556    0.5258 C   0  0  1  0  0  0  0  0  0  0  0  0
    3.4072    1.6234    0.8451 O   0  0  0  0  0  0  0  0  0  0  0  0
    1.2779    0.6822    0.5422 C   0  0  0  0  0  0  0  0  0  0  0  0
    0.8248    1.8159    0.8202 O   0  0  0  0  0  0  0  0  0  0  0  0
    0.3414   -0.3317    0.2549 N   0  0  0  0  0  0  0  0  0  0  0  0
   -1.0744   -0.1887    0.2508 C   0  0  0  0  0  0  0  0  0  0  0  0
   -1.7627   -1.4893   -0.1024 C   0  0  0  0  0  0  0  0  0  0  0  0
   -1.4070   -1.9899   -1.3923 N   0  0  0  0  0  0  0  0  0  0  0  0
   -1.5907    0.9594   -0.5569 C   0  0  0  0  0  0  0  0  0  0  0  0
   -1.2551    0.8977   -1.8945 O   0  0  0  0  0  0  0  0  0  0  0  0
   -1.4932    0.1082    1.7025 C   0  0  0  0  0  0  0  0  0  0  0  0
   -2.8781    0.2629    1.7827 O   0  0  0  0  0  0  0  0  0  0  0  0
    3.9265   -0.8918   -0.6585 H   0  0  0  0  0  0  0  0  0  0  0  0
    3.9034    0.7592   -1.3019 H   0  0  0  0  0  0  0  0  0  0  0  0
    2.4540   -0.2447   -1.5364 H   0  0  0  0  0  0  0  0  0  0  0  0
    2.9995   -0.2902    1.3081 H   0  0  0  0  0  0  0  0  0  0  0  0
    3.5573    2.1077   -0.0105 H   0  0  0  0  0  0  0  0  0  0  0  0
    0.7382   -1.2741    0.0245 H   0  0  0  0  0  0  0  0  0  0  0  0
   -1.4176   -2.2374    0.6699 H   0  0  0  0  0  0  0  0  0  0  0  0
   -2.8615   -1.3835   -0.0515 H   0  0  0  0  0  0  0  0  0  0  0  0
   -2.1571   -1.9648   -2.0921 H   0  0  0  0  0  0  0  0  0  0  0  0
   -0.4778   -1.6913   -1.7268 H   0  0  0  0  0  0  0  0  0  0  0  0
   -1.3390    1.8949   -0.0580 H   0  0  0  0  0  0  0  0  0  0  0  0
   -2.7195    0.8862   -0.5223 H   0  0  0  0  0  0  0  0  0  0  0  0
   -1.4399    1.8080   -2.2757 H   0  0  0  0  0  0  0  0  0  0  0  0
   -1.0461    1.0662    2.0039 H   0  0  0  0  0  0  0  0  0  0  0  0
   -1.1333   -0.7495    2.3184 H   0  0  0  0  0  0  0  0  0  0  0  0
   -3.3483   -0.5923    1.9492 H   0  0  0  0  0  0  0  0  0  0  0  0
  1  2  1  0
  2  3  1  0
  2  4  1  0
  4  5  2  0
  4  6  1  0
  6  7  1  0
  7  8  1  0
  8  9  1  0
  7 10  1  0
 10 11  1  0
  7 12  1  0
 12 13  1  0
  1 14  1  0
  1 15  1  0
  1 16  1  0
  2 17  1  1
  3 18  1  0
  6 19  1  0
  8 20  1  0
  8 21  1  0
  9 22  1  0
  9 23  1  0
 10 24  1  0
 10 25  1  0
 11 26  1  0
 12 27  1  0
 12 28  1  0
 13 29  1  0
M  END
$$$$

     RDKit          3D

 29 28  0  0  0  0  0  0  0  0999 V2000
    3.4139    0.8874   -0.4966 C   0  0  0  0  0  0  0  0  0  0  0  0
    2.9239   -0.5172   -0.2791 C   0  0  1  0  0  0  0  0  0  0  0  0
    3.7865   -1.1589    0.6022 O   0  0  0  0  0  0  0  0  0  0  0  0
    1.5604   -0.6010    0.2323 C   0  0  0  0  0  0  0  0  0  0  0  0
    1.3573   -1.1962    1.3192 O   0  0  0  0  0  0  0  0  0  0  0  0
    0.4200   -0.0501   -0.4171 N   0  0  0  0  0  0  0  0  0  0  0  0
   -0.9086   -0.1602    0.1287 C   0  0  0  0  0  0  0  0  0  0  0  0
   -1.8817    0.5392   -0.8032 C   0  0  0  0  0  0  0  0  0  0  0  0
   -3.2304    0.4893   -0.3548 N   0  0  0  0  0  0  0  0  0  0  0  0
   -1.3375   -1.6097    0.2187 C   0  0  0  0  0  0  0  0  0  0  0  0
   -2.6275   -1.6408    0.7518 O   0  0  0  0  0  0  0  0  0  0  0  0
   -0.9773    0.5330    1.4478 C   0  0  0  0  0  0  0  0  0  0  0  0
   -0.6506    1.8824    1.2306 O   0  0  0  0  0  0  0  0  0  0  0  0
    4.2235    1.1385    0.2192 H   0  0  0  0  0  0  0  0  0  0  0  0
    3.8653    0.9522   -1.5175 H   0  0  0  0  0  0  0  0  0  0  0  0
    2.6339    1.6561   -0.3836 H   0  0  0  0  0  0  0  0  0  0  0  0
    2.9718   -1.1152   -1.2353 H   0  0  0  0  0  0  0  0  0  0  0  0
    3.8096   -0.6632    1.4661 H   0  0  0  0  0  0  0  0  0  0  0  0
    0.5887    0.4405   -1.3118 H   0  0  0  0  0  0  0  0  0  0  0  0
   -1.5734    1.6137   -0.8498 H   0  0  0  0  0  0  0  0  0  0  0  0
   -1.8292    0.1515   -1.8347 H   0  0  0  0  0  0  0  0  0  0  0  0
   -3.9475    0.4145   -1.0959 H   0  0  0  0  0  0  0  0  0  0  0  0
   -3.4688    1.1331    0.4166 H   0  0  0  0  0  0  0  0  0  0  0  0
   -0.6716   -2.2234    0.8492 H   0  0  0  0  0  0  0  0  0  0  0  0
   -1.3290   -2.0525   -0.7941 H   0  0  0  0  0  0  0  0  0  0  0  0
   -3.3065   -1.8580    0.0492 H   0  0  0  0  0  0  0  0  0  0  0  0
   -2.0215    0.4524    1.8512 H   0  0  0  0  0  0  0  0  0  0  0  0
   -0.3166    0.1533    2.2252 H   0  0  0  0  0  0  0  0  0  0  0  0
   -1.4772    2.4093    1.2778 H   0  0  0  0  0  0  0  0  0  0  0  0
  1  2  1  0
  2  3  1  0
  2  4  1  0
  4  5  2  0
  4  6  1  0
  6  7  1  0
  7  8  1  0
  8  9  1  0
  7 10  1  0
 10 11  1  0
  7 12  1  0
 12 13  1  0
  1 14  1  0
  1 15  1  0
  1 16  1  0
  2 17  1  6
  3 18  1  0
  6 19  1  0
  8 20  1  0
  8 21  1  0
  9 22  1  0
  9 23  1  0
 10 24  1  0
 10 25  1  0
 11 26  1  0
 12 27  1  0
 12 28  1  0
 13 29  1  0
M  END
$$$$

     RDKit          3D

 29 28  0  0  0  0  0  0  0  0999 V2000
    3.6721    0.5578   -0.3531 C   0  0  0  0  0  0  0  0  0  0  0  0
    2.7476   -0.5748    0.0988 C   0  0  1  0  0  0  0  0  0  0  0  0
    2.7903   -0.7407    1.4801 O   0  0  0  0  0  0  0  0  0  0  0  0
    1.3868   -0.2237   -0.3787 C   0  0  0  0  0  0  0  0  0  0  0  0
    1.2469   -0.0534   -1.6156 O   0  0  0  0  0  0  0  0  0  0  0  0
    0.2677   -0.0784    0.4988 N   0  0  0  0  0  0  0  0  0  0  0  0
   -1.0376    0.2621    0.0140 C   0  0  0  0  0  0  0  0  0  0  0  0
   -1.5798   -0.7452   -0.9737 C   0  0  0  0  0  0  0  0  0  0  0  0
   -1.7050   -2.0654   -0.4317 N   0  0  0  0  0  0  0  0  0  0  0  0
   -2.0024    0.3504    1.1786 C   0  0  0  0  0  0  0  0  0  0  0  0
   -2.1166   -0.8257    1.8817 O   0  0  0  0  0  0  0  0  0  0  0  0
   -1.0514    1.6218   -0.6718 C   0  0  0  0  0  0  0  0  0  0  0  0
   -2.3895    1.8126   -1.0879 O   0  0  0  0  0  0  0  0  0  0  0  0
    3.3022    1.5379    0.0326 H   0  0  0  0  0  0  0  0  0  0  0  0
    4.7011    0.3706    0.0134 H   0  0  0  0  0  0  0  0  0  0  0  0
    3.6372    0.5470   -1.4598 H   0  0  0  0  0  0  0  0  0  0  0  0
    3.0944   -1.4836   -0.4183 H   0  0  0  0  0  0  0  0  0  0  0  0
    2.9491   -1.6610    1.7670 H   0  0  0  0  0  0  0  0  0  0  0  0
    0.3933   -0.2221    1.5228 H   0  0  0  0  0  0  0  0  0  0  0  0
   -0.9974   -0.7784   -1.9109 H   0  0  0  0  0  0  0  0  0  0  0  0
   -2.6002   -0.3884   -1.2604 H   0  0  0  0  0  0  0  0  0  0  0  0
   -2.6264   -2.2135    0.0714 H   0  0  0  0  0  0  0  0  0  0  0  0
   -1.7618   -2.7339   -1.2584 H   0  0  0  0  0  0  0  0  0  0  0  0
   -3.0033    0.6615    0.8011 H   0  0  0  0  0  0  0  0  0  0  0  0
   -1.6675    1.2079    1.8302 H   0  0  0  0  0  0  0  0  0  0  0  0
   -1.7148   -0.6968    2.7868 H   0  0  0  0  0  0  0  0  0  0  0  0
   -0.7488    2.3806    0.0624 H   0  0  0  0  0  0  0  0  0  0  0  0
   -0.4159    1.5748   -1.5550 H   0  0  0  0  0  0  0  0  0  0  0  0
   -2.7700    2.5998   -0.6642 H   0  0  0  0  0  0  0  0  0  0  0  0
  1  2  1  0
  2  3  1  0
  2  4  1  0
  4  5  2  0
  4  6  1  0
  6  7  1  0
  7  8  1  0
  8  9  1  0
  7 10  1  0
 10 11  1  0
  7 12  1  0
 12 13  1  0
  1 14  1  0
  1 15  1  0
  1 16  1  0
  2 17  1  6
  3 18  1  0
  6 19  1  0
  8 20  1  0
  8 21  1  0
  9 22  1  0
  9 23  1  0
 10 24  1  0
 10 25  1  0
 11 26  1  0
 12 27  1  0
 12 28  1  0
 13 29  1  0
M  END
$$$$

     RDKit          3D

 29 28  0  0  0  0  0  0  0  0999 V2000
    3.4997    0.8158   -0.1339 C   0  0  0  0  0  0  0  0  0  0  0  0
    2.7350   -0.5049   -0.2550 C   0  0  1  0  0  0  0  0  0  0  0  0
    2.6771   -1.1340    0.9943 O   0  0  0  0  0  0  0  0  0  0  0  0
    1.3449   -0.1816   -0.6759 C   0  0  0  0  0  0  0  0  0  0  0  0
    1.1501    0.3817   -1.7562 O   0  0  0  0  0  0  0  0  0  0  0  0
    0.2259   -0.5051    0.1360 N   0  0  0  0  0  0  0  0  0  0  0  0
   -1.1470   -0.2321   -0.1869 C   0  0  0  0  0  0  0  0  0  0  0  0
   -1.3256    1.2513   -0.3443 C   0  0  0  0  0  0  0  0  0  0  0  0
   -1.0102    2.0201    0.8065 N   0  0  0  0  0  0  0  0  0  0  0  0
   -2.0255   -0.8084    0.9050 C   0  0  0  0  0  0  0  0  0  0  0  0
   -1.7616   -0.2709    2.1514 O   0  0  0  0  0  0  0  0  0  0  0  0
   -1.6106   -0.8722   -1.4686 C   0  0  0  0  0  0  0  0  0  0  0  0
   -1.4739   -2.2557   -1.3649 O   0  0  0  0  0  0  0  0  0  0  0  0
    3.8895    1.1408   -1.1114 H   0  0  0  0  0  0  0  0  0  0  0  0
    2.8051    1.5605    0.3122 H   0  0  0  0  0  0  0  0  0  0  0  0
    4.3438    0.7029    0.5939 H   0  0  0  0  0  0  0  0  0  0  0  0
    3.2459   -1.1357   -0.9784 H   0  0  0  0  0  0  0  0  0  0  0  0
    2.6692   -0.4174    1.6961 H   0  0  0  0  0  0  0  0  0  0  0  0
    0.4508   -0.9788    1.0342 H   0  0  0  0  0  0  0  0  0  0  0  0
   -0.7327    1.6278   -1.1987 H   0  0  0  0  0  0  0  0  0  0  0  0
   -2.3977    1.4833   -0.6158 H   0  0  0  0  0  0  0  0  0  0  0  0
   -1.7558    2.6149    1.1795 H   0  0  0  0  0  0  0  0  0  0  0  0
   -0.3807    1.5891    1.4897 H   0  0  0  0  0  0  0  0  0  0  0  0
   -3.1077   -0.6340    0.7035 H   0  0  0  0  0  0  0  0  0  0  0  0
   -1.9096   -1.9081    0.9848 H   0  0  0  0  0  0  0  0  0  0  0  0
   -2.3437    0.4977    2.3395 H   0  0  0  0  0  0  0  0  0  0  0  0
   -1.1500   -0.4825   -2.3707 H   0  0  0  0  0  0  0  0  0  0  0  0
   -2.7049   -0.6760   -1.5435 H   0  0  0  0  0  0  0  0  0  0  0  0
   -2.1999   -2.6885   -0.8788 H   0  0  0  0  0  0  0  0  0  0  0  0
  1  2  1  0
  2  3  1  0
  2  4  1  0
  4  5  2  0
  4  6  1  0
  6  7  1  0
  7  8  1  0
  8  9  1  0
  7 10  1  0
 10 11  1  0
  7 12  1  0
 12 13  1  0
  1 14  1  0
  1 15  1  0
  1 16  1  0
  2 17  1  6
  3 18  1  0
  6 19  1  0
  8 20  1  0
  8 21  1  0
  9 22  1  0
  9 23  1  0
 10 24  1  0
 10 25  1  0
 11 26  1  0
 12 27  1  0
 12 28  1  0
 13 29  1  0
M  END
$$$$

     RDKit          3D

 29 28  0  0  0  0  0  0  0  0999 V2000
    3.7507    0.4144    0.2476 C   0  0  0  0  0  0  0  0  0  0  0  0
    2.5763    0.7371   -0.6347 C   0  0  1  0  0  0  0  0  0  0  0  0
    2.5619   -0.0063   -1.7884 O   0  0  0  0  0  0  0  0  0  0  0  0
    1.2813    0.6240    0.0987 C   0  0  0  0  0  0  0  0  0  0  0  0
    1.0878    1.2257    1.1769 O   0  0  0  0  0  0  0  0  0  0  0  0
    0.2526   -0.1867   -0.4471 N   0  0  0  0  0  0  0  0  0  0  0  0
   -1.0310   -0.3965    0.1334 C   0  0  0  0  0  0  0  0  0  0  0  0
   -1.7982    0.9075    0.3310 C   0  0  0  0  0  0  0  0  0  0  0  0
   -2.0096    1.5890   -0.9186 N   0  0  0  0  0  0  0  0  0  0  0  0
   -1.0767   -1.1809    1.3921 C   0  0  0  0  0  0  0  0  0  0  0  0
   -0.3410   -0.5660    2.3873 O   0  0  0  0  0  0  0  0  0  0  0  0
   -1.8886   -1.1777   -0.8855 C   0  0  0  0  0  0  0  0  0  0  0  0
   -3.1277   -1.3781   -0.3206 O   0  0  0  0  0  0  0  0  0  0  0  0
    4.6465    0.3657   -0.4130 H   0  0  0  0  0  0  0  0  0  0  0  0
    3.9292    1.2558    0.9454 H   0  0  0  0  0  0  0  0  0  0  0  0
    3.6690   -0.5642    0.7528 H   0  0  0  0  0  0  0  0  0  0  0  0
    2.6711    1.8238   -0.9080 H   0  0  0  0  0  0  0  0  0  0  0  0
    2.8036   -0.9241   -1.5718 H   0  0  0  0  0  0  0  0  0  0  0  0
    0.4958   -0.6640   -1.3692 H   0  0  0  0  0  0  0  0  0  0  0  0
   -2.7979    0.6931    0.7604 H   0  0  0  0  0  0  0  0  0  0  0  0
   -1.2504    1.5636    1.0511 H   0  0  0  0  0  0  0  0  0  0  0  0
   -3.0031    1.7570   -1.1523 H   0  0  0  0  0  0  0  0  0  0  0  0
   -1.3863    2.3856   -1.0841 H   0  0  0  0  0  0  0  0  0  0  0  0
   -2.1397   -1.2008    1.7690 H   0  0  0  0  0  0  0  0  0  0  0  0
   -0.8113   -2.2530    1.2670 H   0  0  0  0  0  0  0  0  0  0  0  0
    0.0618   -1.2571    2.9721 H   0  0  0  0  0  0  0  0  0  0  0  0
   -1.9202   -0.5411   -1.7952 H   0  0  0  0  0  0  0  0  0  0  0  0
   -1.3651   -2.1102   -1.1339 H   0  0  0  0  0  0  0  0  0  0  0  0
   -3.8409   -0.9356   -0.8622 H   0  0  0  0  0  0  0  0  0  0  0  0
  1  2  1  0
  2  3  1  0
  2  4  1  0
  4  5  2  0
  4  6  1  0
  6  7  1  0
  7  8  1  0
  8  9  1  0
  7 10  1  0
 10 11  1  0
  7 12  1  0
 12 13  1  0
  1 14  1  0
  1 15  1  0
  1 16  1  0
  2 17  1  6
  3 18  1  0
  6 19  1  0
  8 20  1  0
  8 21  1  0
  9 22  1  0
  9 23  1  0
 10 24  1  0
 10 25  1  0
 11 26  1  0
 12 27  1  0
 12 28  1  0
 13 29  1  0
M  END
$$$$

     RDKit          3D

 29 28  0  0  0  0  0  0  0  0999 V2000
    3.1834   -1.4735   -0.0335 C   0  0  0  0  0  0  0  0  0  0  0  0
    2.8188   -0.1060   -0.5658 C   0  0  1  0  0  0  0  0  0  0  0  0
    3.4183    0.1449   -1.7994 O   0  0  0  0  0  0  0  0  0  0  0  0
    1.3541    0.0620   -0.7376 C   0  0  0  0  0  0  0  0  0  0  0  0
    0.8166    0.3751   -1.8264 O   0  0  0  0  0  0  0  0  0  0  0  0
    0.4343   -0.1240    0.3440 N   0  0  0  0  0  0  0  0  0  0  0  0
   -0.9675    0.0215    0.2279 C   0  0  0  0  0  0  0  0  0  0  0  0
   -1.4327    1.3749   -0.2441 C   0  0  0  0  0  0  0  0  0  0  0  0
   -2.8942    1.3198   -0.2964 N   0  0  0  0  0  0  0  0  0  0  0  0
   -1.6813   -1.0577   -0.5301 C   0  0  0  0  0  0  0  0  0  0  0  0
   -1.2593   -1.1842   -1.8375 O   0  0  0  0  0  0  0  0  0  0  0  0
   -1.5241   -0.0618    1.6693 C   0  0  0  0  0  0  0  0  0  0  0  0
   -0.9067    1.0044    2.3467 O   0  0  0  0  0  0  0  0  0  0  0  0
    2.6090   -2.2831   -0.5109 H   0  0  0  0  0  0  0  0  0  0  0  0
    4.2869   -1.6006   -0.2348 H   0  0  0  0  0  0  0  0  0  0  0  0
    3.0833   -1.5096    1.0711 H   0  0  0  0  0  0  0  0  0  0  0  0
    3.2456    0.6364    0.1439 H   0  0  0  0  0  0  0  0  0  0  0  0
    3.3640    1.1285   -1.9343 H   0  0  0  0  0  0  0  0  0  0  0  0
    0.8564   -0.3859    1.2686 H   0  0  0  0  0  0  0  0  0  0  0  0
   -1.1810    2.1954    0.4298 H   0  0  0  0  0  0  0  0  0  0  0  0
   -1.1150    1.5893   -1.2993 H   0  0  0  0  0  0  0  0  0  0  0  0
   -3.2486    1.0241   -1.2118 H   0  0  0  0  0  0  0  0  0  0  0  0
   -3.3240    2.1940    0.0731 H   0  0  0  0  0  0  0  0  0  0  0  0
   -2.7785   -0.9075   -0.5361 H   0  0  0  0  0  0  0  0  0  0  0  0
   -1.5440   -2.0691   -0.0457 H   0  0  0  0  0  0  0  0  0  0  0  0
   -1.7855   -0.6233   -2.4694 H   0  0  0  0  0  0  0  0  0  0  0  0
   -2.6140    0.0033    1.6777 H   0  0  0  0  0  0  0  0  0  0  0  0
   -1.1246   -0.9967    2.0854 H   0  0  0  0  0  0  0  0  0  0  0  0
   -0.0896    1.3091    1.9084 H   0  0  0  0  0  0  0  0  0  0  0  0
  1  2  1  0
  2  3  1  0
  2  4  1  0
  4  5  2  0
  4  6  1  0
  6  7  1  0
  7  8  1  0
  8  9  1  0
  7 10  1  0
 10 11  1  0
  7 12  1  0
 12 13  1  0
  1 14  1  0
  1 15  1  0
  1 16  1  0
  2 17  1  1
  3 18  1  0
  6 19  1  0
  8 20  1  0
  8 21  1  0
  9 22  1  0
  9 23  1  0
 10 24  1  0
 10 25  1  0
 11 26  1  0
 12 27  1  0
 12 28  1  0
 13 29  1  0
M  END
$$$$

     RDKit          3D

 29 28  0  0  0  0  0  0  0  0999 V2000
    2.8179   -1.5086    0.2503 C   0  0  0  0  0  0  0  0  0  0  0  0
    2.5904   -0.0362    0.5373 C   0  0  1  0  0  0  0  0  0  0  0  0
    3.6316    0.7242    0.0410 O   0  0  0  0  0  0  0  0  0  0  0  0
    1.3055    0.4123   -0.0303 C   0  0  0  0  0  0  0  0  0  0  0  0
    1.3150    1.3691   -0.8427 O   0  0  0  0  0  0  0  0  0  0  0  0
    0.1258   -0.2668    0.3761 N   0  0  0  0  0  0  0  0  0  0  0  0
   -1.1389    0.1619   -0.1719 C   0  0  0  0  0  0  0  0  0  0  0  0
   -1.3974    1.5832    0.1732 C   0  0  0  0  0  0  0  0  0  0  0  0
   -1.4203    1.6653    1.6425 N   0  0  0  0  0  0  0  0  0  0  0  0
   -1.1276   -0.1554   -1.6331 C   0  0  0  0  0  0  0  0  0  0  0  0
   -0.9585   -1.5575   -1.7358 O   0  0  0  0  0  0  0  0  0  0  0  0
   -2.2740   -0.6624    0.4483 C   0  0  0  0  0  0  0  0  0  0  0  0
   -3.5166   -0.3064   -0.0269 O   0  0  0  0  0  0  0  0  0  0  0  0
    2.4046   -1.7210   -0.7776 H   0  0  0  0  0  0  0  0  0  0  0  0
    2.3363   -2.1091    1.0316 H   0  0  0  0  0  0  0  0  0  0  0  0
    3.9103   -1.6841    0.2751 H   0  0  0  0  0  0  0  0  0  0  0  0
    2.5503    0.0728    1.6537 H   0  0  0  0  0  0  0  0  0  0  0  0
    3.6963    0.6081   -0.9328 H   0  0  0  0  0  0  0  0  0  0  0  0
    0.1455   -1.0551    1.0495 H   0  0  0  0  0  0  0  0  0  0  0  0
   -0.7200    2.3246   -0.2427 H   0  0  0  0  0  0  0  0  0  0  0  0
   -2.4312    1.8868   -0.1329 H   0  0  0  0  0  0  0  0  0  0  0  0
   -1.0246    2.5934    1.8888 H   0  0  0  0  0  0  0  0  0  0  0  0
   -0.7433    0.9554    2.0034 H   0  0  0  0  0  0  0  0  0  0  0  0
   -1.9969    0.1663   -2.2043 H   0  0  0  0  0  0  0  0  0  0  0  0
   -0.2394    0.2595   -2.1727 H   0  0  0  0  0  0  0  0  0  0  0  0
   -0.0048   -1.7241   -1.5199 H   0  0  0  0  0  0  0  0  0  0  0  0
   -2.2868   -0.5220    1.5664 H   0  0  0  0  0  0  0  0  0  0  0  0
   -2.0867   -1.7475    0.2981 H   0  0  0  0  0  0  0  0  0  0  0  0
   -3.4623    0.2734   -0.8118 H   0  0  0  0  0  0  0  0  0  0  0  0
  1  2  1  0
  2  3  1  0
  2  4  1  0
  4  5  2  0
  4  6  1  0
  6  7  1  0
  7  8  1  0
  8  9  1  0
  7 10  1  0
 10 11  1  0
  7 12  1  0
 12 13  1  0
  1 14  1  0
  1 15  1  0
  1 16  1  0
  2 17  1  1
  3 18  1  0
  6 19  1  0
  8 20  1  0
  8 21  1  0
  9 22  1  0
  9 23  1  0
 10 24  1  0
 10 25  1  0
 11 26  1  0
 12 27  1  0
 12 28  1  0
 13 29  1  0
M  END
$$$$

     RDKit          3D

 29 28  0  0  0  0  0  0  0  0999 V2000
    3.8395    0.6379    0.1865 C   0  0  0  0  0  0  0  0  0  0  0  0
    2.8905   -0.2464   -0.5979 C   0  0  1  0  0  0  0  0  0  0  0  0
    2.9240   -1.5130   -0.0297 O   0  0  0  0  0  0  0  0  0  0  0  0
    1.4992    0.3081   -0.5877 C   0  0  0  0  0  0  0  0  0  0  0  0
    1.2347    1.4374   -1.0499 O   0  0  0  0  0  0  0  0  0  0  0  0
    0.4394   -0.4560   -0.0421 N   0  0  0  0  0  0  0  0  0  0  0  0
   -0.9427   -0.0695    0.0337 C   0  0  0  0  0  0  0  0  0  0  0  0
   -1.6486   -1.2172    0.7971 C   0  0  0  0  0  0  0  0  0  0  0  0
   -3.0453   -0.9588    0.9449 N   0  0  0  0  0  0  0  0  0  0  0  0
   -1.6351    0.0951   -1.2905 C   0  0  0  0  0  0  0  0  0  0  0  0
   -1.0493    1.0617   -2.0589 O   0  0  0  0  0  0  0  0  0  0  0  0
   -1.0649    1.1949    0.8499 C   0  0  0  0  0  0  0  0  0  0  0  0
   -2.4105    1.5806    0.9297 O   0  0  0  0  0  0  0  0  0  0  0  0
    4.7818    0.0734    0.3164 H   0  0  0  0  0  0  0  0  0  0  0  0
    3.3825    0.8633    1.1683 H   0  0  0  0  0  0  0  0  0  0  0  0
    3.9939    1.5755   -0.3638 H   0  0  0  0  0  0  0  0  0  0  0  0
    3.2748   -0.2895   -1.6345 H   0  0  0  0  0  0  0  0  0  0  0  0
    2.4195   -2.1447   -0.6153 H   0  0  0  0  0  0  0  0  0  0  0  0
    0.7318   -1.4161    0.3446 H   0  0  0  0  0  0  0  0  0  0  0  0
   -1.5163   -2.1112    0.1734 H   0  0  0  0  0  0  0  0  0  0  0  0
   -1.1005   -1.3525    1.7350 H   0  0  0  0  0  0  0  0  0  0  0  0
   -3.3979   -1.5004    1.7635 H   0  0  0  0  0  0  0  0  0  0  0  0
   -3.5828   -1.3024    0.1166 H   0  0  0  0  0  0  0  0  0  0  0  0
   -2.6861    0.4186   -1.0937 H   0  0  0  0  0  0  0  0  0  0  0  0
   -1.7245   -0.8587   -1.8464 H   0  0  0  0  0  0  0  0  0  0  0  0
   -1.6260    1.8338   -2.2511 H   0  0  0  0  0  0  0  0  0  0  0  0
   -0.4924    2.0239    0.4088 H   0  0  0  0  0  0  0  0  0  0  0  0
   -0.7033    1.0102    1.8917 H   0  0  0  0  0  0  0  0  0  0  0  0
   -2.7851    1.3224    1.8012 H   0  0  0  0  0  0  0  0  0  0  0  0
  1  2  1  0
  2  3  1  0
  2  4  1  0
  4  5  2  0
  4  6  1  0
  6  7  1  0
  7  8  1  0
  8  9  1  0
  7 10  1  0
 10 11  1  0
  7 12  1  0
 12 13  1  0
  1 14  1  0
  1 15  1  0
  1 16  1  0
  2 17  1  6
  3 18  1  0
  6 19  1  0
  8 20  1  0
  8 21  1  0
  9 22  1  0
  9 23  1  0
 10 24  1  0
 10 25  1  0
 11 26  1  0
 12 27  1  0
 12 28  1  0
 13 29  1  0
M  END
$$$$
