
     RDKit          3D

 31 30  0  0  0  0  0  0  0  0999 V2000
   -2.8689   -2.4663    0.6631 C   0  0  0  0  0  0  0  0  0  0  0  0
   -2.4934   -2.2208   -0.6348 O   0  0  0  0  0  0  0  0  0  0  0  0
   -1.2664   -1.6378   -0.8146 C   0  0  0  0  0  0  0  0  0  0  0  0
   -1.1013   -0.2948   -0.2425 C   0  0  0  0  0  0  0  0  0  0  0  0
   -2.1232    0.2265    0.3316 O   0  0  0  0  0  0  0  0  0  0  0  0
    0.0682    0.4919   -0.2612 N   0  0  0  0  0  0  0  0  0  0  0  0
    0.0160    1.8389    0.3030 C   0  0  0  0  0  0  0  0  0  0  0  0
   -0.3693    2.8565   -0.7463 C   0  0  0  0  0  0  0  0  0  0  0  0
   -0.3999    4.1623   -0.1136 N   0  0  0  0  0  0  0  0  0  0  0  0
    1.3029    0.0091   -0.7689 C   0  0  0  0  0  0  0  0  0  0  0  0
    2.2606   -0.5663    0.2106 C   0  0  1  0  0  0  0  0  0  0  0  0
    1.7787   -1.7243    1.0256 C   0  0  0  0  0  0  0  0  0  0  0  0
    3.4111   -1.0001   -0.4952 O   0  0  0  0  0  0  0  0  0  0  0  0
   -3.8862   -2.9463    0.6187 H   0  0  0  0  0  0  0  0  0  0  0  0
   -2.9752   -1.6151    1.3262 H   0  0  0  0  0  0  0  0  0  0  0  0
   -2.2216   -3.2195    1.1685 H   0  0  0  0  0  0  0  0  0  0  0  0
   -1.1211   -1.5574   -1.9428 H   0  0  0  0  0  0  0  0  0  0  0  0
   -0.4627   -2.3130   -0.4892 H   0  0  0  0  0  0  0  0  0  0  0  0
    0.9886    2.1531    0.7295 H   0  0  0  0  0  0  0  0  0  0  0  0
   -0.7308    1.8893    1.1193 H   0  0  0  0  0  0  0  0  0  0  0  0
   -1.3751    2.6530   -1.1727 H   0  0  0  0  0  0  0  0  0  0  0  0
    0.3696    2.9192   -1.5650 H   0  0  0  0  0  0  0  0  0  0  0  0
   -1.2795    4.1858    0.4641 H   0  0  0  0  0  0  0  0  0  0  0  0
    0.3879    4.2391    0.5899 H   0  0  0  0  0  0  0  0  0  0  0  0
    1.7843    0.8542   -1.3224 H   0  0  0  0  0  0  0  0  0  0  0  0
    1.1296   -0.7666   -1.5627 H   0  0  0  0  0  0  0  0  0  0  0  0
    2.5861    0.2091    0.9744 H   0  0  0  0  0  0  0  0  0  0  0  0
    1.7583   -2.6725    0.4381 H   0  0  0  0  0  0  0  0  0  0  0  0
    2.4851   -1.8557    1.8712 H   0  0  0  0  0  0  0  0  0  0  0  0
    0.7806   -1.5354    1.4788 H   0  0  0  0  0  0  0  0  0  0  0  0
    3.5671   -0.2958   -1.1806 H   0  0  0  0  0  0  0  0  0  0  0  0
  1  2  1  0
  2  3  1  0
  3  4  1  0
  4  5  2  0
  4  6  1  0
  6  7  1  0
  7  8  1  0
  8  9  1  0
  6 10  1  0
 10 11  1  0
 11 12  1  0
 11 13  1  0
  1 14  1  0
  1 15  1  0
  1 16  1  0
  3 17  1  0
  3 18  1  0
  7 19  1  0
  7 20  1  0
  8 21  1  0
  8 22  1  0
  9 23  1  0
  9 24  1  0
 10 25  1  0
 10 26  1  0
 11 27  1  1
 12 28  1  0
 12 29  1  0
 12 30  1  0
 13 31  1  0
M  END
$$$$

     RDKit          3D

 31 30  0  0  0  0  0  0  0  0999 V2000
   -4.1803   -1.6460    0.3768 C   0  0  0  0  0  0  0  0  0  0  0  0
   -2.9014   -1.7368   -0.1733 O   0  0  0  0  0  0  0  0  0  0  0  0
   -2.2241   -0.5133    0.0036 C   0  0  0  0  0  0  0  0  0  0  0  0
   -0.8894   -0.6357   -0.5807 C   0  0  0  0  0  0  0  0  0  0  0  0
   -0.5729   -1.7748   -1.0795 O   0  0  0  0  0  0  0  0  0  0  0  0
    0.1029    0.3702   -0.6646 N   0  0  0  0  0  0  0  0  0  0  0  0
   -0.1480    1.6513   -0.0973 C   0  0  0  0  0  0  0  0  0  0  0  0
    0.2906    1.9295    1.2876 C   0  0  0  0  0  0  0  0  0  0  0  0
   -0.2158    1.0720    2.3098 N   0  0  0  0  0  0  0  0  0  0  0  0
    1.3102    0.0830   -1.3829 C   0  0  0  0  0  0  0  0  0  0  0  0
    2.3946   -0.5857   -0.5867 C   0  0  1  0  0  0  0  0  0  0  0  0
    3.5913   -0.8834   -1.4942 C   0  0  0  0  0  0  0  0  0  0  0  0
    2.8667    0.1096    0.4940 O   0  0  0  0  0  0  0  0  0  0  0  0
   -4.0439   -1.4212    1.4537 H   0  0  0  0  0  0  0  0  0  0  0  0
   -4.7232   -0.8040   -0.0718 H   0  0  0  0  0  0  0  0  0  0  0  0
   -4.6910   -2.5986    0.2356 H   0  0  0  0  0  0  0  0  0  0  0  0
   -2.7657    0.3092   -0.5171 H   0  0  0  0  0  0  0  0  0  0  0  0
   -2.1841   -0.2469    1.0566 H   0  0  0  0  0  0  0  0  0  0  0  0
    0.3258    2.4601   -0.7426 H   0  0  0  0  0  0  0  0  0  0  0  0
   -1.2637    1.8554   -0.2193 H   0  0  0  0  0  0  0  0  0  0  0  0
   -0.1726    2.9702    1.5179 H   0  0  0  0  0  0  0  0  0  0  0  0
    1.3879    2.1074    1.3246 H   0  0  0  0  0  0  0  0  0  0  0  0
   -1.1583    1.3692    2.6032 H   0  0  0  0  0  0  0  0  0  0  0  0
    0.4122    1.1018    3.1429 H   0  0  0  0  0  0  0  0  0  0  0  0
    1.7357    0.9931   -1.8733 H   0  0  0  0  0  0  0  0  0  0  0  0
    1.0590   -0.6575   -2.2073 H   0  0  0  0  0  0  0  0  0  0  0  0
    2.0498   -1.6171   -0.2617 H   0  0  0  0  0  0  0  0  0  0  0  0
    3.4200   -1.8193   -2.0408 H   0  0  0  0  0  0  0  0  0  0  0  0
    3.6790   -0.0199   -2.1887 H   0  0  0  0  0  0  0  0  0  0  0  0
    4.5148   -0.9170   -0.8702 H   0  0  0  0  0  0  0  0  0  0  0  0
    2.9940   -0.5045    1.2456 H   0  0  0  0  0  0  0  0  0  0  0  0
  1  2  1  0
  2  3  1  0
  3  4  1  0
  4  5  2  0
  4  6  1  0
  6  7  1  0
  7  8  1  0
  8  9  1  0
  6 10  1  0
 10 11  1  0
 11 12  1  0
 11 13  1  0
  1 14  1  0
  1 15  1  0
  1 16  1  0
  3 17  1  0
  3 18  1  0
  7 19  1  0
  7 20  1  0
  8 21  1  0
  8 22  1  0
  9 23  1  0
  9 24  1  0
 10 25  1  0
 10 26  1  0
 11 27  1  1
 12 28  1  0
 12 29  1  0
 12 30  1  0
 13 31  1  0
M  END
$$$$

     RDKit          3D

 31 30  0  0  0  0  0  0  0  0999 V2000
    3.7518   -1.4170    0.4866 C   0  0  0  0  0  0  0  0  0  0  0  0
    2.7167   -1.6724    1.3415 O   0  0  0  0  0  0  0  0  0  0  0  0
    1.4911   -1.4731    0.7465 C   0  0  0  0  0  0  0  0  0  0  0  0
    1.1806   -0.1098    0.3382 C   0  0  0  0  0  0  0  0  0  0  0  0
    1.9864    0.7966    0.7493 O   0  0  0  0  0  0  0  0  0  0  0  0
    0.0622    0.2910   -0.4788 N   0  0  0  0  0  0  0  0  0  0  0  0
   -0.0089    1.7110   -0.7423 C   0  0  0  0  0  0  0  0  0  0  0  0
   -0.7264    2.5340    0.2589 C   0  0  0  0  0  0  0  0  0  0  0  0
   -0.6932    3.9600   -0.1397 N   0  0  0  0  0  0  0  0  0  0  0  0
   -0.8619   -0.6089   -1.0472 C   0  0  0  0  0  0  0  0  0  0  0  0
   -2.0919   -1.0065   -0.3487 C   0  0  1  0  0  0  0  0  0  0  0  0
   -1.9392   -1.9621    0.8089 C   0  0  0  0  0  0  0  0  0  0  0  0
   -2.9867    0.0052   -0.0314 O   0  0  0  0  0  0  0  0  0  0  0  0
    4.6949   -1.6153    1.0556 H   0  0  0  0  0  0  0  0  0  0  0  0
    3.7802   -0.3747    0.1817 H   0  0  0  0  0  0  0  0  0  0  0  0
    3.7765   -2.0979   -0.3953 H   0  0  0  0  0  0  0  0  0  0  0  0
    1.3775   -2.2311   -0.0508 H   0  0  0  0  0  0  0  0  0  0  0  0
    0.7371   -1.7245    1.5630 H   0  0  0  0  0  0  0  0  0  0  0  0
    1.0324    2.1523   -0.8314 H   0  0  0  0  0  0  0  0  0  0  0  0
   -0.4477    1.9155   -1.7520 H   0  0  0  0  0  0  0  0  0  0  0  0
   -1.8015    2.3086    0.3285 H   0  0  0  0  0  0  0  0  0  0  0  0
   -0.2933    2.4288    1.2747 H   0  0  0  0  0  0  0  0  0  0  0  0
   -1.0310    4.5518    0.6280 H   0  0  0  0  0  0  0  0  0  0  0  0
    0.2511    4.2238   -0.4871 H   0  0  0  0  0  0  0  0  0  0  0  0
   -0.3476   -1.5851   -1.3483 H   0  0  0  0  0  0  0  0  0  0  0  0
   -1.2031   -0.2417   -2.0809 H   0  0  0  0  0  0  0  0  0  0  0  0
   -2.6880   -1.6340   -1.1130 H   0  0  0  0  0  0  0  0  0  0  0  0
   -1.6434   -1.4794    1.7404 H   0  0  0  0  0  0  0  0  0  0  0  0
   -2.9713   -2.3842    0.9940 H   0  0  0  0  0  0  0  0  0  0  0  0
   -1.3000   -2.8159    0.5049 H   0  0  0  0  0  0  0  0  0  0  0  0
   -3.8035   -0.4451    0.3182 H   0  0  0  0  0  0  0  0  0  0  0  0
  1  2  1  0
  2  3  1  0
  3  4  1  0
  4  5  2  0
  4  6  1  0
  6  7  1  0
  7  8  1  0
  8  9  1  0
  6 10  1  0
 10 11  1  0
 11 12  1  0
 11 13  1  0
  1 14  1  0
  1 15  1  0
  1 16  1  0
  3 17  1  0
  3 18  1  0
  7 19  1  0
  7 20  1  0
  8 21  1  0
  8 22  1  0
  9 23  1  0
  9 24  1  0
 10 25  1  0
 10 26  1  0
 11 27  1  6
 12 28  1  0
 12 29  1  0
 12 30  1  0
 13 31  1  0
M  END
$$$$

     RDKit          3D

 31 30  0  0  0  0  0  0  0  0999 V2000
    3.0372    0.0709    0.4032 C   0  0  0  0  0  0  0  0  0  0  0  0
    2.6862   -1.0443   -0.3924 O   0  0  0  0  0  0  0  0  0  0  0  0
    1.9778   -0.5781   -1.4685 C   0  0  0  0  0  0  0  0  0  0  0  0
    0.6533   -0.0268   -1.2438 C   0  0  0  0  0  0  0  0  0  0  0  0
    0.2501    0.8055   -2.1562 O   0  0  0  0  0  0  0  0  0  0  0  0
   -0.2553   -0.2585   -0.2006 N   0  0  0  0  0  0  0  0  0  0  0  0
   -0.0535   -1.2167    0.8451 C   0  0  0  0  0  0  0  0  0  0  0  0
   -0.6239   -2.5847    0.4726 C   0  0  0  0  0  0  0  0  0  0  0  0
   -2.0400   -2.4105    0.2437 N   0  0  0  0  0  0  0  0  0  0  0  0
   -1.5114    0.5309   -0.1656 C   0  0  0  0  0  0  0  0  0  0  0  0
   -1.3734    1.7975    0.6050 C   0  0  1  0  0  0  0  0  0  0  0  0
   -0.3838    2.7723    0.0093 C   0  0  0  0  0  0  0  0  0  0  0  0
   -2.6110    2.4840    0.6001 O   0  0  0  0  0  0  0  0  0  0  0  0
    3.6127   -0.2565    1.2883 H   0  0  0  0  0  0  0  0  0  0  0  0
    3.7154    0.7346   -0.1863 H   0  0  0  0  0  0  0  0  0  0  0  0
    2.1430    0.6361    0.7111 H   0  0  0  0  0  0  0  0  0  0  0  0
    2.6273    0.2059   -1.9460 H   0  0  0  0  0  0  0  0  0  0  0  0
    1.9265   -1.3685   -2.2917 H   0  0  0  0  0  0  0  0  0  0  0  0
    0.9615   -1.3987    1.1891 H   0  0  0  0  0  0  0  0  0  0  0  0
   -0.5987   -0.8238    1.7579 H   0  0  0  0  0  0  0  0  0  0  0  0
   -0.0846   -3.0303   -0.3720 H   0  0  0  0  0  0  0  0  0  0  0  0
   -0.5223   -3.2862    1.3260 H   0  0  0  0  0  0  0  0  0  0  0  0
   -2.4923   -2.3810    1.1926 H   0  0  0  0  0  0  0  0  0  0  0  0
   -2.4293   -3.1542   -0.3700 H   0  0  0  0  0  0  0  0  0  0  0  0
   -1.8201    0.6819   -1.2116 H   0  0  0  0  0  0  0  0  0  0  0  0
   -2.3028   -0.0660    0.3301 H   0  0  0  0  0  0  0  0  0  0  0  0
   -1.1190    1.6163    1.6582 H   0  0  0  0  0  0  0  0  0  0  0  0
   -0.3517    3.7159    0.6234 H   0  0  0  0  0  0  0  0  0  0  0  0
    0.6479    2.3745    0.0598 H   0  0  0  0  0  0  0  0  0  0  0  0
   -0.6874    3.1105   -0.9996 H   0  0  0  0  0  0  0  0  0  0  0  0
   -2.9786    2.3481   -0.3115 H   0  0  0  0  0  0  0  0  0  0  0  0
  1  2  1  0
  2  3  1  0
  3  4  1  0
  4  5  2  0
  4  6  1  0
  6  7  1  0
  7  8  1  0
  8  9  1  0
  6 10  1  0
 10 11  1  0
 11 12  1  0
 11 13  1  0
  1 14  1  0
  1 15  1  0
  1 16  1  0
  3 17  1  0
  3 18  1  0
  7 19  1  0
  7 20  1  0
  8 21  1  0
  8 22  1  0
  9 23  1  0
  9 24  1  0
 10 25  1  0
 10 26  1  0
 11 27  1  1
 12 28  1  0
 12 29  1  0
 12 30  1  0
 13 31  1  0
M  END
$$$$

     RDKit          3D

 31 30  0  0  0  0  0  0  0  0999 V2000
    3.3373    1.8375    0.9120 C   0  0  0  0  0  0  0  0  0  0  0  0
    3.2976    1.4667   -0.4159 O   0  0  0  0  0  0  0  0  0  0  0  0
    2.3263    0.5579   -0.7132 C   0  0  0  0  0  0  0  0  0  0  0  0
    0.9435    0.9710   -0.5110 C   0  0  0  0  0  0  0  0  0  0  0  0
    0.7053    2.1372   -0.1256 O   0  0  0  0  0  0  0  0  0  0  0  0
   -0.2036    0.1026   -0.7333 N   0  0  0  0  0  0  0  0  0  0  0  0
    0.1081   -1.2221   -1.1441 C   0  0  0  0  0  0  0  0  0  0  0  0
    0.2968   -2.2317   -0.0563 C   0  0  0  0  0  0  0  0  0  0  0  0
    0.6514   -3.5243   -0.6895 N   0  0  0  0  0  0  0  0  0  0  0  0
   -1.5000    0.6908   -0.5801 C   0  0  0  0  0  0  0  0  0  0  0  0
   -2.0804    0.6875    0.7947 C   0  0  1  0  0  0  0  0  0  0  0  0
   -3.3992    1.4755    0.8350 C   0  0  0  0  0  0  0  0  0  0  0  0
   -2.2869   -0.5518    1.3596 O   0  0  0  0  0  0  0  0  0  0  0  0
    3.5172    0.9278    1.5593 H   0  0  0  0  0  0  0  0  0  0  0  0
    2.4575    2.3967    1.2646 H   0  0  0  0  0  0  0  0  0  0  0  0
    4.2282    2.5248    1.0042 H   0  0  0  0  0  0  0  0  0  0  0  0
    2.5646   -0.3846   -0.1374 H   0  0  0  0  0  0  0  0  0  0  0  0
    2.4677    0.2261   -1.7857 H   0  0  0  0  0  0  0  0  0  0  0  0
   -0.6770   -1.6537   -1.8266 H   0  0  0  0  0  0  0  0  0  0  0  0
    1.0198   -1.1903   -1.8119 H   0  0  0  0  0  0  0  0  0  0  0  0
    1.0445   -1.9532    0.7028 H   0  0  0  0  0  0  0  0  0  0  0  0
   -0.6546   -2.4079    0.5058 H   0  0  0  0  0  0  0  0  0  0  0  0
   -0.2531   -3.9595   -0.9581 H   0  0  0  0  0  0  0  0  0  0  0  0
    1.1471   -4.0641    0.0307 H   0  0  0  0  0  0  0  0  0  0  0  0
   -1.4369    1.7611   -0.9341 H   0  0  0  0  0  0  0  0  0  0  0  0
   -2.2376    0.2388   -1.3067 H   0  0  0  0  0  0  0  0  0  0  0  0
   -1.4199    1.2586    1.5100 H   0  0  0  0  0  0  0  0  0  0  0  0
   -4.0175    1.2063   -0.0469 H   0  0  0  0  0  0  0  0  0  0  0  0
   -3.9710    1.2686    1.7410 H   0  0  0  0  0  0  0  0  0  0  0  0
   -3.1384    2.5445    0.7945 H   0  0  0  0  0  0  0  0  0  0  0  0
   -2.8368   -1.1370    0.7621 H   0  0  0  0  0  0  0  0  0  0  0  0
  1  2  1  0
  2  3  1  0
  3  4  1  0
  4  5  2  0
  4  6  1  0
  6  7  1  0
  7  8  1  0
  8  9  1  0
  6 10  1  0
 10 11  1  0
 11 12  1  0
 11 13  1  0
  1 14  1  0
  1 15  1  0
  1 16  1  0
  3 17  1  0
  3 18  1  0
  7 19  1  0
  7 20  1  0
  8 21  1  0
  8 22  1  0
  9 23  1  0
  9 24  1  0
 10 25  1  0
 10 26  1  0
 11 27  1  1
 12 28  1  0
 12 29  1  0
 12 30  1  0
 13 31  1  0
M  END
$$$$

     RDKit          3D

 31 30  0  0  0  0  0  0  0  0999 V2000
    2.9408   -2.9438   -1.1476 C   0  0  0  0  0  0  0  0  0  0  0  0
    2.9008   -1.5537   -0.9084 O   0  0  0  0  0  0  0  0  0  0  0  0
    1.6227   -1.3075   -0.3737 C   0  0  0  0  0  0  0  0  0  0  0  0
    1.4628    0.1361   -0.0792 C   0  0  0  0  0  0  0  0  0  0  0  0
    2.4020    0.9454   -0.3448 O   0  0  0  0  0  0  0  0  0  0  0  0
    0.2248    0.5690    0.5105 N   0  0  0  0  0  0  0  0  0  0  0  0
    0.1640    1.9769    0.7872 C   0  0  0  0  0  0  0  0  0  0  0  0
   -0.3051    2.8274   -0.3530 C   0  0  0  0  0  0  0  0  0  0  0  0
   -0.3178    4.2465    0.0229 N   0  0  0  0  0  0  0  0  0  0  0  0
   -0.7784   -0.3928    0.8148 C   0  0  0  0  0  0  0  0  0  0  0  0
   -1.8072   -0.7144   -0.2076 C   0  0  1  0  0  0  0  0  0  0  0  0
   -2.7320   -1.7732    0.4364 C   0  0  0  0  0  0  0  0  0  0  0  0
   -2.6014    0.3485   -0.5760 O   0  0  0  0  0  0  0  0  0  0  0  0
    2.1384   -3.2314   -1.8672 H   0  0  0  0  0  0  0  0  0  0  0  0
    2.8258   -3.4863   -0.2062 H   0  0  0  0  0  0  0  0  0  0  0  0
    3.9385   -3.1491   -1.5825 H   0  0  0  0  0  0  0  0  0  0  0  0
    1.5528   -1.9477    0.5462 H   0  0  0  0  0  0  0  0  0  0  0  0
    0.9272   -1.7069   -1.1170 H   0  0  0  0  0  0  0  0  0  0  0  0
   -0.4441    2.2088    1.6906 H   0  0  0  0  0  0  0  0  0  0  0  0
    1.1883    2.3828    1.0565 H   0  0  0  0  0  0  0  0  0  0  0  0
    0.4375    2.7728   -1.1887 H   0  0  0  0  0  0  0  0  0  0  0  0
   -1.2795    2.5888   -0.7505 H   0  0  0  0  0  0  0  0  0  0  0  0
    0.3071    4.3927    0.8482 H   0  0  0  0  0  0  0  0  0  0  0  0
    0.0187    4.8560   -0.7470 H   0  0  0  0  0  0  0  0  0  0  0  0
   -1.3445   -0.1218    1.7577 H   0  0  0  0  0  0  0  0  0  0  0  0
   -0.3101   -1.3782    1.0991 H   0  0  0  0  0  0  0  0  0  0  0  0
   -1.3312   -1.1690   -1.1164 H   0  0  0  0  0  0  0  0  0  0  0  0
   -3.7484   -1.6861    0.0437 H   0  0  0  0  0  0  0  0  0  0  0  0
   -2.3422   -2.7733    0.1459 H   0  0  0  0  0  0  0  0  0  0  0  0
   -2.6970   -1.6840    1.5251 H   0  0  0  0  0  0  0  0  0  0  0  0
   -3.0135    0.7674    0.2001 H   0  0  0  0  0  0  0  0  0  0  0  0
  1  2  1  0
  2  3  1  0
  3  4  1  0
  4  5  2  0
  4  6  1  0
  6  7  1  0
  7  8  1  0
  8  9  1  0
  6 10  1  0
 10 11  1  0
 11 12  1  0
 11 13  1  0
  1 14  1  0
  1 15  1  0
  1 16  1  0
  3 17  1  0
  3 18  1  0
  7 19  1  0
  7 20  1  0
  8 21  1  0
  8 22  1  0
  9 23  1  0
  9 24  1  0
 10 25  1  0
 10 26  1  0
 11 27  1  6
 12 28  1  0
 12 29  1  0
 12 30  1  0
 13 31  1  0
M  END
$$$$

     RDKit          3D

 31 30  0  0  0  0  0  0  0  0999 V2000
    3.4716    0.8221   -1.2096 C   0  0  0  0  0  0  0  0  0  0  0  0
    2.3771    0.8429   -2.0351 O   0  0  0  0  0  0  0  0  0  0  0  0
    1.1684    1.0456   -1.4263 C   0  0  0  0  0  0  0  0  0  0  0  0
    0.8212   -0.0651   -0.5208 C   0  0  0  0  0  0  0  0  0  0  0  0
    1.5854   -1.0522   -0.4555 O   0  0  0  0  0  0  0  0  0  0  0  0
   -0.3504   -0.0576    0.2793 N   0  0  0  0  0  0  0  0  0  0  0  0
   -1.2088    1.0887    0.2098 C   0  0  0  0  0  0  0  0  0  0  0  0
   -0.8667    2.1359    1.2473 C   0  0  0  0  0  0  0  0  0  0  0  0
   -1.7614    3.2863    1.1386 N   0  0  0  0  0  0  0  0  0  0  0  0
   -0.5921   -1.2101    1.1046 C   0  0  0  0  0  0  0  0  0  0  0  0
   -1.3849   -2.2882    0.4876 C   0  0  1  0  0  0  0  0  0  0  0  0
   -0.7885   -2.9255   -0.7326 C   0  0  0  0  0  0  0  0  0  0  0  0
   -1.5071   -3.3178    1.4527 O   0  0  0  0  0  0  0  0  0  0  0  0
    3.4956    0.0640   -0.4350 H   0  0  0  0  0  0  0  0  0  0  0  0
    4.3762    0.7777   -1.8667 H   0  0  0  0  0  0  0  0  0  0  0  0
    3.5512    1.8085   -0.6604 H   0  0  0  0  0  0  0  0  0  0  0  0
    0.3752    1.2147   -2.1961 H   0  0  0  0  0  0  0  0  0  0  0  0
    1.2693    1.9587   -0.7723 H   0  0  0  0  0  0  0  0  0  0  0  0
   -2.2805    0.8285    0.3409 H   0  0  0  0  0  0  0  0  0  0  0  0
   -1.0642    1.5965   -0.7870 H   0  0  0  0  0  0  0  0  0  0  0  0
    0.1525    2.5038    1.2263 H   0  0  0  0  0  0  0  0  0  0  0  0
   -1.0488    1.6896    2.2526 H   0  0  0  0  0  0  0  0  0  0  0  0
   -2.6971    3.0222    0.7635 H   0  0  0  0  0  0  0  0  0  0  0  0
   -1.2806    3.9767    0.4959 H   0  0  0  0  0  0  0  0  0  0  0  0
   -1.1162   -0.8660    2.0179 H   0  0  0  0  0  0  0  0  0  0  0  0
    0.3867   -1.6248    1.4366 H   0  0  0  0  0  0  0  0  0  0  0  0
   -2.4220   -1.9348    0.3229 H   0  0  0  0  0  0  0  0  0  0  0  0
    0.1846   -3.4132   -0.5315 H   0  0  0  0  0  0  0  0  0  0  0  0
   -1.4761   -3.7705   -1.0246 H   0  0  0  0  0  0  0  0  0  0  0  0
   -0.6434   -2.2152   -1.5562 H   0  0  0  0  0  0  0  0  0  0  0  0
   -0.7258   -3.9214    1.4331 H   0  0  0  0  0  0  0  0  0  0  0  0
  1  2  1  0
  2  3  1  0
  3  4  1  0
  4  5  2  0
  4  6  1  0
  6  7  1  0
  7  8  1  0
  8  9  1  0
  6 10  1  0
 10 11  1  0
 11 12  1  0
 11 13  1  0
  1 14  1  0
  1 15  1  0
  1 16  1  0
  3 17  1  0
  3 18  1  0
  7 19  1  0
  7 20  1  0
  8 21  1  0
  8 22  1  0
  9 23  1  0
  9 24  1  0
 10 25  1  0
 10 26  1  0
 11 27  1  6
 12 28  1  0
 12 29  1  0
 12 30  1  0
 13 31  1  0
M  END
$$$$

     RDKit          3D

 31 30  0  0  0  0  0  0  0  0999 V2000
    3.7261   -1.6638   -0.0435 C   0  0  0  0  0  0  0  0  0  0  0  0
    2.5822   -2.3841   -0.2007 O   0  0  0  0  0  0  0  0  0  0  0  0
    1.4267   -1.8902    0.3256 C   0  0  0  0  0  0  0  0  0  0  0  0
    0.9710   -0.5923   -0.2193 C   0  0  0  0  0  0  0  0  0  0  0  0
    1.6829   -0.1300   -1.1800 O   0  0  0  0  0  0  0  0  0  0  0  0
   -0.1575    0.1311    0.2493 N   0  0  0  0  0  0  0  0  0  0  0  0
   -0.4438    1.4120   -0.3847 C   0  0  0  0  0  0  0  0  0  0  0  0
    0.3481    2.4341    0.4510 C   0  0  0  0  0  0  0  0  0  0  0  0
    0.1341    3.7502   -0.0951 N   0  0  0  0  0  0  0  0  0  0  0  0
   -1.0373   -0.3025    1.2934 C   0  0  0  0  0  0  0  0  0  0  0  0
   -2.2310   -1.0824    0.8802 C   0  0  1  0  0  0  0  0  0  0  0  0
   -3.2513   -0.2805    0.0775 C   0  0  0  0  0  0  0  0  0  0  0  0
   -1.9852   -2.2560    0.2052 O   0  0  0  0  0  0  0  0  0  0  0  0
    4.0047   -1.4798    1.0190 H   0  0  0  0  0  0  0  0  0  0  0  0
    3.8029   -0.7761   -0.6935 H   0  0  0  0  0  0  0  0  0  0  0  0
    4.5747   -2.3298   -0.4097 H   0  0  0  0  0  0  0  0  0  0  0  0
    1.5274   -1.8027    1.4400 H   0  0  0  0  0  0  0  0  0  0  0  0
    0.6496   -2.6824    0.1817 H   0  0  0  0  0  0  0  0  0  0  0  0
   -0.0083    1.3939   -1.4098 H   0  0  0  0  0  0  0  0  0  0  0  0
   -1.4964    1.6846   -0.3958 H   0  0  0  0  0  0  0  0  0  0  0  0
    1.4292    2.1853    0.4318 H   0  0  0  0  0  0  0  0  0  0  0  0
   -0.0030    2.3421    1.4989 H   0  0  0  0  0  0  0  0  0  0  0  0
    0.8598    3.9696   -0.7884 H   0  0  0  0  0  0  0  0  0  0  0  0
    0.0387    4.4640    0.6377 H   0  0  0  0  0  0  0  0  0  0  0  0
   -1.4033    0.5533    1.9237 H   0  0  0  0  0  0  0  0  0  0  0  0
   -0.4490   -0.9214    2.0217 H   0  0  0  0  0  0  0  0  0  0  0  0
   -2.8050   -1.3730    1.8139 H   0  0  0  0  0  0  0  0  0  0  0  0
   -3.4640    0.7025    0.4984 H   0  0  0  0  0  0  0  0  0  0  0  0
   -2.8881   -0.1608   -0.9542 H   0  0  0  0  0  0  0  0  0  0  0  0
   -4.2344   -0.8455    0.0816 H   0  0  0  0  0  0  0  0  0  0  0  0
   -1.9005   -2.0694   -0.7571 H   0  0  0  0  0  0  0  0  0  0  0  0
  1  2  1  0
  2  3  1  0
  3  4  1  0
  4  5  2  0
  4  6  1  0
  6  7  1  0
  7  8  1  0
  8  9  1  0
  6 10  1  0
 10 11  1  0
 11 12  1  0
 11 13  1  0
  1 14  1  0
  1 15  1  0
  1 16  1  0
  3 17  1  0
  3 18  1  0
  7 19  1  0
  7 20  1  0
  8 21  1  0
  8 22  1  0
  9 23  1  0
  9 24  1  0
 10 25  1  0
 10 26  1  0
 11 27  1  1
 12 28  1  0
 12 29  1  0
 12 30  1  0
 13 31  1  0
M  END
$$$$
