
     RDKit          3D

 32 31  0  0  0  0  0  0  0  0999 V2000
    4.7342   -0.5371    1.1068 C   0  0  0  0  0  0  0  0  0  0  0  0
    4.4581    0.0467   -0.2461 C   0  0  0  0  0  0  0  0  0  0  0  0
    3.1365    0.6293   -0.3591 N   0  0  0  0  0  0  0  0  0  0  0  0
    1.9458   -0.1245   -0.1663 C   0  0  0  0  0  0  0  0  0  0  0  0
    2.0892   -1.3342    0.1117 O   0  0  0  0  0  0  0  0  0  0  0  0
    0.6495    0.5613   -0.3055 C   0  0  0  0  0  0  0  0  0  0  0  0
   -0.4817   -0.3161   -0.0828 N   0  0  0  0  0  0  0  0  0  0  0  0
   -0.6060   -1.3067   -1.1355 C   0  0  0  0  0  0  0  0  0  0  0  0
   -1.6435    0.5515   -0.0754 C   0  0  0  0  0  0  0  0  0  0  0  0
   -2.9406   -0.1296    0.1560 C   0  0  2  0  0  0  0  0  0  0  0  0
   -3.3081   -1.1256   -0.7923 N   0  0  0  0  0  0  0  0  0  0  0  0
   -4.0011    0.9755    0.2658 C   0  0  0  0  0  0  0  0  0  0  0  0
   -3.6273    1.9314    1.1894 O   0  0  0  0  0  0  0  0  0  0  0  0
    4.1454   -0.0182    1.8929 H   0  0  0  0  0  0  0  0  0  0  0  0
    4.5145   -1.6279    1.0674 H   0  0  0  0  0  0  0  0  0  0  0  0
    5.8277   -0.4608    1.2840 H   0  0  0  0  0  0  0  0  0  0  0  0
    5.2186    0.7859   -0.5036 H   0  0  0  0  0  0  0  0  0  0  0  0
    4.5482   -0.7730   -1.0160 H   0  0  0  0  0  0  0  0  0  0  0  0
    3.0481    1.6425   -0.5903 H   0  0  0  0  0  0  0  0  0  0  0  0
    0.5987    1.3541    0.4703 H   0  0  0  0  0  0  0  0  0  0  0  0
    0.4962    1.0480   -1.2819 H   0  0  0  0  0  0  0  0  0  0  0  0
   -1.2564   -0.9723   -1.9698 H   0  0  0  0  0  0  0  0  0  0  0  0
    0.3890   -1.5113   -1.6187 H   0  0  0  0  0  0  0  0  0  0  0  0
   -0.9067   -2.2753   -0.6910 H   0  0  0  0  0  0  0  0  0  0  0  0
   -1.6248    1.0736   -1.0750 H   0  0  0  0  0  0  0  0  0  0  0  0
   -1.4477    1.3312    0.6685 H   0  0  0  0  0  0  0  0  0  0  0  0
   -2.9022   -0.5724    1.1940 H   0  0  0  0  0  0  0  0  0  0  0  0
   -3.2758   -2.1013   -0.3754 H   0  0  0  0  0  0  0  0  0  0  0  0
   -4.3365   -0.9707   -1.0124 H   0  0  0  0  0  0  0  0  0  0  0  0
   -4.9998    0.5552    0.4693 H   0  0  0  0  0  0  0  0  0  0  0  0
   -4.0823    1.5014   -0.7265 H   0  0  0  0  0  0  0  0  0  0  0  0
   -4.3595    2.1692    1.8240 H   0  0  0  0  0  0  0  0  0  0  0  0
  1  2  1  0
  2  3  1  0
  3  4  1  0
  4  5  2  0
  4  6  1  0
  6  7  1  0
  7  8  1  0
  7  9  1  0
  9 10  1  0
 10 11  1  0
 10 12  1  0
 12 13  1  0
  1 14  1  0
  1 15  1  0
  1 16  1  0
  2 17  1  0
  2 18  1  0
  3 19  1  0
  6 20  1  0
  6 21  1  0
  8 22  1  0
  8 23  1  0
  8 24  1  0
  9 25  1  0
  9 26  1  0
 10 27  1  1
 11 28  1  0
 11 29  1  0
 12 30  1  0
 12 31  1  0
 13 32  1  0
M  END
$$$$

     RDKit          3D

 32 31  0  0  0  0  0  0  0  0999 V2000
    4.8574    0.7732    0.3024 C   0  0  0  0  0  0  0  0  0  0  0  0
    4.0478   -0.3405   -0.2944 C   0  0  0  0  0  0  0  0  0  0  0  0
    2.6083   -0.0784   -0.1262 N   0  0  0  0  0  0  0  0  0  0  0  0
    1.6328   -0.9977   -0.6016 C   0  0  0  0  0  0  0  0  0  0  0  0
    2.1248   -2.0327   -1.1707 O   0  0  0  0  0  0  0  0  0  0  0  0
    0.1814   -0.8423   -0.4880 C   0  0  0  0  0  0  0  0  0  0  0  0
   -0.3053    0.3091    0.1666 N   0  0  0  0  0  0  0  0  0  0  0  0
   -0.0928    0.3612    1.5723 C   0  0  0  0  0  0  0  0  0  0  0  0
   -1.5825    0.7644   -0.2640 C   0  0  0  0  0  0  0  0  0  0  0  0
   -2.7358   -0.1218    0.0813 C   0  0  2  0  0  0  0  0  0  0  0  0
   -2.5988   -1.4448   -0.4937 N   0  0  0  0  0  0  0  0  0  0  0  0
   -4.0407    0.4424   -0.4892 C   0  0  0  0  0  0  0  0  0  0  0  0
   -4.3180    1.7172   -0.0265 O   0  0  0  0  0  0  0  0  0  0  0  0
    4.2107    1.6580    0.4378 H   0  0  0  0  0  0  0  0  0  0  0  0
    5.6868    0.9885   -0.4191 H   0  0  0  0  0  0  0  0  0  0  0  0
    5.3385    0.5070    1.2716 H   0  0  0  0  0  0  0  0  0  0  0  0
    4.2924   -0.5786   -1.3381 H   0  0  0  0  0  0  0  0  0  0  0  0
    4.2380   -1.2680    0.3078 H   0  0  0  0  0  0  0  0  0  0  0  0
    2.3185    0.7784    0.3310 H   0  0  0  0  0  0  0  0  0  0  0  0
   -0.2202   -0.9310   -1.5417 H   0  0  0  0  0  0  0  0  0  0  0  0
   -0.3012   -1.7337    0.0244 H   0  0  0  0  0  0  0  0  0  0  0  0
   -1.0440    0.6445    2.1006 H   0  0  0  0  0  0  0  0  0  0  0  0
    0.6441    1.1076    1.9154 H   0  0  0  0  0  0  0  0  0  0  0  0
    0.2102   -0.6698    1.9316 H   0  0  0  0  0  0  0  0  0  0  0  0
   -1.5352    0.9972   -1.3364 H   0  0  0  0  0  0  0  0  0  0  0  0
   -1.7806    1.7473    0.2560 H   0  0  0  0  0  0  0  0  0  0  0  0
   -2.8025   -0.2159    1.1765 H   0  0  0  0  0  0  0  0  0  0  0  0
   -2.5497   -1.4628   -1.5175 H   0  0  0  0  0  0  0  0  0  0  0  0
   -3.2306   -2.1247   -0.0610 H   0  0  0  0  0  0  0  0  0  0  0  0
   -3.9790    0.4577   -1.5849 H   0  0  0  0  0  0  0  0  0  0  0  0
   -4.9000   -0.2029   -0.2058 H   0  0  0  0  0  0  0  0  0  0  0  0
   -4.3748    1.7918    0.9424 H   0  0  0  0  0  0  0  0  0  0  0  0
  1  2  1  0
  2  3  1  0
  3  4  1  0
  4  5  2  0
  4  6  1  0
  6  7  1  0
  7  8  1  0
  7  9  1  0
  9 10  1  0
 10 11  1  0
 10 12  1  0
 12 13  1  0
  1 14  1  0
  1 15  1  0
  1 16  1  0
  2 17  1  0
  2 18  1  0
  3 19  1  0
  6 20  1  0
  6 21  1  0
  8 22  1  0
  8 23  1  0
  8 24  1  0
  9 25  1  0
  9 26  1  0
 10 27  1  1
 11 28  1  0
 11 29  1  0
 12 30  1  0
 12 31  1  0
 13 32  1  0
M  END
$$$$

     RDKit          3D

 32 31  0  0  0  0  0  0  0  0999 V2000
    4.3319   -0.3126    1.0600 C   0  0  0  0  0  0  0  0  0  0  0  0
    2.9979   -0.8757    1.5306 C   0  0  0  0  0  0  0  0  0  0  0  0
    1.9168   -0.4134    0.6646 N   0  0  0  0  0  0  0  0  0  0  0  0
    1.8851   -0.7619   -0.7389 C   0  0  0  0  0  0  0  0  0  0  0  0
    2.8230   -1.4811   -1.1601 O   0  0  0  0  0  0  0  0  0  0  0  0
    0.8105   -0.2909   -1.6173 C   0  0  0  0  0  0  0  0  0  0  0  0
   -0.2020    0.5114   -0.9336 N   0  0  0  0  0  0  0  0  0  0  0  0
   -0.9846    1.0840   -2.0620 C   0  0  0  0  0  0  0  0  0  0  0  0
   -1.1530   -0.3891   -0.3019 C   0  0  0  0  0  0  0  0  0  0  0  0
   -2.0926    0.2259    0.6473 C   0  0  2  0  0  0  0  0  0  0  0  0
   -2.9890   -0.8341    1.1570 N   0  0  0  0  0  0  0  0  0  0  0  0
   -2.9269    1.3688    0.2197 C   0  0  0  0  0  0  0  0  0  0  0  0
   -3.6613    1.8550    1.3547 O   0  0  0  0  0  0  0  0  0  0  0  0
    4.6461   -0.7457    0.0951 H   0  0  0  0  0  0  0  0  0  0  0  0
    4.2530    0.7973    0.9228 H   0  0  0  0  0  0  0  0  0  0  0  0
    5.1122   -0.4767    1.7996 H   0  0  0  0  0  0  0  0  0  0  0  0
    2.8080   -0.4987    2.5527 H   0  0  0  0  0  0  0  0  0  0  0  0
    3.0694   -1.9746    1.5887 H   0  0  0  0  0  0  0  0  0  0  0  0
    1.1372    0.1839    1.0034 H   0  0  0  0  0  0  0  0  0  0  0  0
    1.1851    0.2892   -2.4986 H   0  0  0  0  0  0  0  0  0  0  0  0
    0.2685   -1.1705   -2.0357 H   0  0  0  0  0  0  0  0  0  0  0  0
   -0.7692    2.1864   -2.1497 H   0  0  0  0  0  0  0  0  0  0  0  0
   -2.0351    0.8173   -2.0383 H   0  0  0  0  0  0  0  0  0  0  0  0
   -0.5905    0.6661   -3.0209 H   0  0  0  0  0  0  0  0  0  0  0  0
   -1.7578   -0.9115   -1.0999 H   0  0  0  0  0  0  0  0  0  0  0  0
   -0.5743   -1.1642    0.2288 H   0  0  0  0  0  0  0  0  0  0  0  0
   -1.4940    0.5682    1.5578 H   0  0  0  0  0  0  0  0  0  0  0  0
   -3.6578   -1.1129    0.3984 H   0  0  0  0  0  0  0  0  0  0  0  0
   -2.4110   -1.5903    1.5271 H   0  0  0  0  0  0  0  0  0  0  0  0
   -3.7592    1.0918   -0.4893 H   0  0  0  0  0  0  0  0  0  0  0  0
   -2.3946    2.2377   -0.1572 H   0  0  0  0  0  0  0  0  0  0  0  0
   -3.7920    1.1210    1.9951 H   0  0  0  0  0  0  0  0  0  0  0  0
  1  2  1  0
  2  3  1  0
  3  4  1  0
  4  5  2  0
  4  6  1  0
  6  7  1  0
  7  8  1  0
  7  9  1  0
  9 10  1  0
 10 11  1  0
 10 12  1  0
 12 13  1  0
  1 14  1  0
  1 15  1  0
  1 16  1  0
  2 17  1  0
  2 18  1  0
  3 19  1  0
  6 20  1  0
  6 21  1  0
  8 22  1  0
  8 23  1  0
  8 24  1  0
  9 25  1  0
  9 26  1  0
 10 27  1  1
 11 28  1  0
 11 29  1  0
 12 30  1  0
 12 31  1  0
 13 32  1  0
M  END
$$$$

     RDKit          3D

 32 31  0  0  0  0  0  0  0  0999 V2000
    4.7491    1.3952    0.0649 C   0  0  0  0  0  0  0  0  0  0  0  0
    3.5045    0.9088    0.7773 C   0  0  0  0  0  0  0  0  0  0  0  0
    2.6200    0.2973   -0.1925 N   0  0  0  0  0  0  0  0  0  0  0  0
    1.3494   -0.2601    0.1992 C   0  0  0  0  0  0  0  0  0  0  0  0
    1.0711   -0.1797    1.4027 O   0  0  0  0  0  0  0  0  0  0  0  0
    0.5420   -0.8548   -0.8774 C   0  0  0  0  0  0  0  0  0  0  0  0
   -0.6910   -1.4129   -0.5684 N   0  0  0  0  0  0  0  0  0  0  0  0
   -1.4098   -1.9797   -1.6829 C   0  0  0  0  0  0  0  0  0  0  0  0
   -1.4397   -1.0955    0.5505 C   0  0  0  0  0  0  0  0  0  0  0  0
   -2.0287    0.2865    0.6407 C   0  0  2  0  0  0  0  0  0  0  0  0
   -2.7609    0.3257    1.9207 N   0  0  0  0  0  0  0  0  0  0  0  0
   -3.0748    0.5488   -0.4174 C   0  0  0  0  0  0  0  0  0  0  0  0
   -3.6266    1.8059   -0.1473 O   0  0  0  0  0  0  0  0  0  0  0  0
    4.4948    2.2055   -0.6528 H   0  0  0  0  0  0  0  0  0  0  0  0
    5.3155    0.5747   -0.3981 H   0  0  0  0  0  0  0  0  0  0  0  0
    5.4487    1.8359    0.8338 H   0  0  0  0  0  0  0  0  0  0  0  0
    3.0407    1.7461    1.3176 H   0  0  0  0  0  0  0  0  0  0  0  0
    3.8662    0.1341    1.5090 H   0  0  0  0  0  0  0  0  0  0  0  0
    2.8903    0.2527   -1.1817 H   0  0  0  0  0  0  0  0  0  0  0  0
    1.1895   -1.7006   -1.2866 H   0  0  0  0  0  0  0  0  0  0  0  0
    0.5278   -0.1454   -1.7563 H   0  0  0  0  0  0  0  0  0  0  0  0
   -2.3438   -2.4528   -1.3813 H   0  0  0  0  0  0  0  0  0  0  0  0
   -1.5851   -1.2857   -2.5040 H   0  0  0  0  0  0  0  0  0  0  0  0
   -0.7587   -2.8008   -2.0936 H   0  0  0  0  0  0  0  0  0  0  0  0
   -0.8933   -1.2950    1.4901 H   0  0  0  0  0  0  0  0  0  0  0  0
   -2.3132   -1.8188    0.5970 H   0  0  0  0  0  0  0  0  0  0  0  0
   -1.2699    1.0631    0.6869 H   0  0  0  0  0  0  0  0  0  0  0  0
   -3.1257    1.3242    1.9748 H   0  0  0  0  0  0  0  0  0  0  0  0
   -3.6109   -0.2697    1.7649 H   0  0  0  0  0  0  0  0  0  0  0  0
   -2.6950    0.5599   -1.4367 H   0  0  0  0  0  0  0  0  0  0  0  0
   -3.8912   -0.1835   -0.2764 H   0  0  0  0  0  0  0  0  0  0  0  0
   -3.0913    2.4706   -0.6479 H   0  0  0  0  0  0  0  0  0  0  0  0
  1  2  1  0
  2  3  1  0
  3  4  1  0
  4  5  2  0
  4  6  1  0
  6  7  1  0
  7  8  1  0
  7  9  1  0
  9 10  1  0
 10 11  1  0
 10 12  1  0
 12 13  1  0
  1 14  1  0
  1 15  1  0
  1 16  1  0
  2 17  1  0
  2 18  1  0
  3 19  1  0
  6 20  1  0
  6 21  1  0
  8 22  1  0
  8 23  1  0
  8 24  1  0
  9 25  1  0
  9 26  1  0
 10 27  1  1
 11 28  1  0
 11 29  1  0
 12 30  1  0
 12 31  1  0
 13 32  1  0
M  END
$$$$

     RDKit          3D

 32 31  0  0  0  0  0  0  0  0999 V2000
    5.0146   -1.2954   -0.3514 C   0  0  0  0  0  0  0  0  0  0  0  0
    4.1083   -0.1906    0.1206 C   0  0  0  0  0  0  0  0  0  0  0  0
    2.7070   -0.5552   -0.1488 N   0  0  0  0  0  0  0  0  0  0  0  0
    1.6858    0.3632    0.2271 C   0  0  0  0  0  0  0  0  0  0  0  0
    2.0413    1.4333    0.7629 O   0  0  0  0  0  0  0  0  0  0  0  0
    0.2883   -0.0204   -0.0456 C   0  0  0  0  0  0  0  0  0  0  0  0
   -0.6937    0.8822    0.3288 N   0  0  0  0  0  0  0  0  0  0  0  0
   -0.8667    2.1128   -0.2997 C   0  0  0  0  0  0  0  0  0  0  0  0
   -1.7420    0.4761    1.1559 C   0  0  0  0  0  0  0  0  0  0  0  0
   -2.7482   -0.4837    0.5893 C   0  0  2  0  0  0  0  0  0  0  0  0
   -2.1629   -1.7161    0.1683 N   0  0  0  0  0  0  0  0  0  0  0  0
   -3.6530    0.0697   -0.4537 C   0  0  0  0  0  0  0  0  0  0  0  0
   -4.2596    1.2705   -0.0935 O   0  0  0  0  0  0  0  0  0  0  0  0
    4.5558   -2.2604   -0.0529 H   0  0  0  0  0  0  0  0  0  0  0  0
    6.0138   -1.2081    0.1376 H   0  0  0  0  0  0  0  0  0  0  0  0
    5.0864   -1.2441   -1.4597 H   0  0  0  0  0  0  0  0  0  0  0  0
    4.1735   -0.1960    1.2396 H   0  0  0  0  0  0  0  0  0  0  0  0
    4.3473    0.8021   -0.2642 H   0  0  0  0  0  0  0  0  0  0  0  0
    2.5136   -1.4801   -0.6098 H   0  0  0  0  0  0  0  0  0  0  0  0
    0.1665   -0.3025   -1.1334 H   0  0  0  0  0  0  0  0  0  0  0  0
    0.1137   -0.9900    0.5096 H   0  0  0  0  0  0  0  0  0  0  0  0
   -0.9086    2.0739   -1.4255 H   0  0  0  0  0  0  0  0  0  0  0  0
   -1.8534    2.5578   -0.0222 H   0  0  0  0  0  0  0  0  0  0  0  0
   -0.1342    2.9129    0.0198 H   0  0  0  0  0  0  0  0  0  0  0  0
   -1.2866   -0.0649    2.0431 H   0  0  0  0  0  0  0  0  0  0  0  0
   -2.2927    1.3255    1.6531 H   0  0  0  0  0  0  0  0  0  0  0  0
   -3.4127   -0.7625    1.4726 H   0  0  0  0  0  0  0  0  0  0  0  0
   -2.8469   -2.5103    0.1615 H   0  0  0  0  0  0  0  0  0  0  0  0
   -1.7546   -1.6912   -0.7922 H   0  0  0  0  0  0  0  0  0  0  0  0
   -3.2050    0.1275   -1.4617 H   0  0  0  0  0  0  0  0  0  0  0  0
   -4.5015   -0.6682   -0.5566 H   0  0  0  0  0  0  0  0  0  0  0  0
   -4.4937    1.2323    0.8608 H   0  0  0  0  0  0  0  0  0  0  0  0
  1  2  1  0
  2  3  1  0
  3  4  1  0
  4  5  2  0
  4  6  1  0
  6  7  1  0
  7  8  1  0
  7  9  1  0
  9 10  1  0
 10 11  1  0
 10 12  1  0
 12 13  1  0
  1 14  1  0
  1 15  1  0
  1 16  1  0
  2 17  1  0
  2 18  1  0
  3 19  1  0
  6 20  1  0
  6 21  1  0
  8 22  1  0
  8 23  1  0
  8 24  1  0
  9 25  1  0
  9 26  1  0
 10 27  1  1
 11 28  1  0
 11 29  1  0
 12 30  1  0
 12 31  1  0
 13 32  1  0
M  END
$$$$

     RDKit          3D

 32 31  0  0  0  0  0  0  0  0999 V2000
    4.0795   -0.9178    0.7534 C   0  0  0  0  0  0  0  0  0  0  0  0
    2.7683   -1.6849    0.6697 C   0  0  0  0  0  0  0  0  0  0  0  0
    1.7411   -0.7143    0.3138 N   0  0  0  0  0  0  0  0  0  0  0  0
    1.8050    0.0382   -0.8852 C   0  0  0  0  0  0  0  0  0  0  0  0
    2.7955   -0.1602   -1.6321 O   0  0  0  0  0  0  0  0  0  0  0  0
    0.7922    1.0225   -1.2903 C   0  0  0  0  0  0  0  0  0  0  0  0
   -0.3405    1.1112   -0.3512 N   0  0  0  0  0  0  0  0  0  0  0  0
   -1.0988    2.2876   -0.8733 C   0  0  0  0  0  0  0  0  0  0  0  0
   -1.1648   -0.0530   -0.6860 C   0  0  0  0  0  0  0  0  0  0  0  0
   -2.3926   -0.1924    0.1356 C   0  0  2  0  0  0  0  0  0  0  0  0
   -3.2555    0.9810   -0.0064 N   0  0  0  0  0  0  0  0  0  0  0  0
   -2.2080   -0.5673    1.5632 C   0  0  0  0  0  0  0  0  0  0  0  0
   -1.4078   -1.6820    1.6949 O   0  0  0  0  0  0  0  0  0  0  0  0
    3.9007    0.1674    0.8436 H   0  0  0  0  0  0  0  0  0  0  0  0
    4.6198   -1.2944    1.6563 H   0  0  0  0  0  0  0  0  0  0  0  0
    4.6880   -1.1069   -0.1508 H   0  0  0  0  0  0  0  0  0  0  0  0
    2.8585   -2.4131   -0.1667 H   0  0  0  0  0  0  0  0  0  0  0  0
    2.5412   -2.1645    1.6277 H   0  0  0  0  0  0  0  0  0  0  0  0
    0.9665   -0.5887    0.9844 H   0  0  0  0  0  0  0  0  0  0  0  0
    1.2821    2.0330   -1.4084 H   0  0  0  0  0  0  0  0  0  0  0  0
    0.3881    0.8133   -2.3194 H   0  0  0  0  0  0  0  0  0  0  0  0
   -1.7630    1.9797   -1.7040 H   0  0  0  0  0  0  0  0  0  0  0  0
   -0.3861    3.0307   -1.2796 H   0  0  0  0  0  0  0  0  0  0  0  0
   -1.6529    2.7711   -0.0531 H   0  0  0  0  0  0  0  0  0  0  0  0
   -0.5644   -0.9693   -0.7436 H   0  0  0  0  0  0  0  0  0  0  0  0
   -1.5175    0.1433   -1.7444 H   0  0  0  0  0  0  0  0  0  0  0  0
   -2.9986   -1.0254   -0.3334 H   0  0  0  0  0  0  0  0  0  0  0  0
   -3.7566    1.2116    0.8611 H   0  0  0  0  0  0  0  0  0  0  0  0
   -3.7985    0.9840   -0.8778 H   0  0  0  0  0  0  0  0  0  0  0  0
   -1.8479    0.2672    2.2027 H   0  0  0  0  0  0  0  0  0  0  0  0
   -3.2249   -0.8471    1.9534 H   0  0  0  0  0  0  0  0  0  0  0  0
   -1.8482   -2.4604    1.2456 H   0  0  0  0  0  0  0  0  0  0  0  0
  1  2  1  0
  2  3  1  0
  3  4  1  0
  4  5  2  0
  4  6  1  0
  6  7  1  0
  7  8  1  0
  7  9  1  0
  9 10  1  0
 10 11  1  0
 10 12  1  0
 12 13  1  0
  1 14  1  0
  1 15  1  0
  1 16  1  0
  2 17  1  0
  2 18  1  0
  3 19  1  0
  6 20  1  0
  6 21  1  0
  8 22  1  0
  8 23  1  0
  8 24  1  0
  9 25  1  0
  9 26  1  0
 10 27  1  6
 11 28  1  0
 11 29  1  0
 12 30  1  0
 12 31  1  0
 13 32  1  0
M  END
$$$$

     RDKit          3D

 32 31  0  0  0  0  0  0  0  0999 V2000
    4.2040    1.5208   -0.3755 C   0  0  0  0  0  0  0  0  0  0  0  0
    3.7799    0.0823   -0.3680 C   0  0  0  0  0  0  0  0  0  0  0  0
    2.3860   -0.0905    0.0816 N   0  0  0  0  0  0  0  0  0  0  0  0
    1.8155   -1.3937    0.1600 C   0  0  0  0  0  0  0  0  0  0  0  0
    2.6042   -2.3414   -0.1708 O   0  0  0  0  0  0  0  0  0  0  0  0
    0.4820   -1.7589    0.5635 C   0  0  0  0  0  0  0  0  0  0  0  0
   -0.4590   -0.7041    0.8711 N   0  0  0  0  0  0  0  0  0  0  0  0
   -1.5799   -1.4226    1.5296 C   0  0  0  0  0  0  0  0  0  0  0  0
   -0.9459   -0.1458   -0.3859 C   0  0  0  0  0  0  0  0  0  0  0  0
   -2.0231    0.8596   -0.2694 C   0  0  2  0  0  0  0  0  0  0  0  0
   -1.7511    2.0230    0.5007 N   0  0  0  0  0  0  0  0  0  0  0  0
   -3.4005    0.3286    0.0053 C   0  0  0  0  0  0  0  0  0  0  0  0
   -4.2813    1.3857   -0.3719 O   0  0  0  0  0  0  0  0  0  0  0  0
    3.9019    2.0023    0.5634 H   0  0  0  0  0  0  0  0  0  0  0  0
    5.3322    1.5316   -0.4096 H   0  0  0  0  0  0  0  0  0  0  0  0
    3.8551    2.0163   -1.2901 H   0  0  0  0  0  0  0  0  0  0  0  0
    4.3900   -0.4661    0.3799 H   0  0  0  0  0  0  0  0  0  0  0  0
    3.8535   -0.4235   -1.3445 H   0  0  0  0  0  0  0  0  0  0  0  0
    1.7924    0.7092    0.3639 H   0  0  0  0  0  0  0  0  0  0  0  0
   -0.0497   -2.3731   -0.2280 H   0  0  0  0  0  0  0  0  0  0  0  0
    0.4521   -2.4578    1.4509 H   0  0  0  0  0  0  0  0  0  0  0  0
   -1.9415   -0.7997    2.3675 H   0  0  0  0  0  0  0  0  0  0  0  0
   -2.3035   -1.7816    0.8224 H   0  0  0  0  0  0  0  0  0  0  0  0
   -1.1657   -2.3393    2.0527 H   0  0  0  0  0  0  0  0  0  0  0  0
   -0.0862    0.3054   -0.9096 H   0  0  0  0  0  0  0  0  0  0  0  0
   -1.3056   -0.9552   -1.0648 H   0  0  0  0  0  0  0  0  0  0  0  0
   -2.1263    1.2779   -1.3536 H   0  0  0  0  0  0  0  0  0  0  0  0
   -0.9065    2.5452    0.3088 H   0  0  0  0  0  0  0  0  0  0  0  0
   -2.2364    2.1407    1.3875 H   0  0  0  0  0  0  0  0  0  0  0  0
   -3.6347    0.1833    1.0792 H   0  0  0  0  0  0  0  0  0  0  0  0
   -3.6749   -0.5181   -0.6406 H   0  0  0  0  0  0  0  0  0  0  0  0
   -4.9772    1.0597   -1.0167 H   0  0  0  0  0  0  0  0  0  0  0  0
  1  2  1  0
  2  3  1  0
  3  4  1  0
  4  5  2  0
  4  6  1  0
  6  7  1  0
  7  8  1  0
  7  9  1  0
  9 10  1  0
 10 11  1  0
 10 12  1  0
 12 13  1  0
  1 14  1  0
  1 15  1  0
  1 16  1  0
  2 17  1  0
  2 18  1  0
  3 19  1  0
  6 20  1  0
  6 21  1  0
  8 22  1  0
  8 23  1  0
  8 24  1  0
  9 25  1  0
  9 26  1  0
 10 27  1  6
 11 28  1  0
 11 29  1  0
 12 30  1  0
 12 31  1  0
 13 32  1  0
M  END
$$$$

     RDKit          3D

 32 31  0  0  0  0  0  0  0  0999 V2000
    4.0734    1.3365   -0.3466 C   0  0  0  0  0  0  0  0  0  0  0  0
    3.7690    0.1578    0.5445 C   0  0  0  0  0  0  0  0  0  0  0  0
    2.3618   -0.1567    0.4123 N   0  0  0  0  0  0  0  0  0  0  0  0
    1.8293   -0.5124   -0.8538 C   0  0  0  0  0  0  0  0  0  0  0  0
    2.6794   -0.5219   -1.8169 O   0  0  0  0  0  0  0  0  0  0  0  0
    0.4043   -0.8548   -1.0991 C   0  0  0  0  0  0  0  0  0  0  0  0
   -0.3239   -0.7970    0.1003 N   0  0  0  0  0  0  0  0  0  0  0  0
    0.0717   -1.8731    0.9842 C   0  0  0  0  0  0  0  0  0  0  0  0
   -1.7314   -0.6905    0.0248 C   0  0  0  0  0  0  0  0  0  0  0  0
   -2.2922    0.5707   -0.5036 C   0  0  2  0  0  0  0  0  0  0  0  0
   -1.9294    1.7485    0.2620 N   0  0  0  0  0  0  0  0  0  0  0  0
   -3.8214    0.4956   -0.4738 C   0  0  0  0  0  0  0  0  0  0  0  0
   -4.3084    0.3902    0.8101 O   0  0  0  0  0  0  0  0  0  0  0  0
    3.1596    1.6479   -0.8686 H   0  0  0  0  0  0  0  0  0  0  0  0
    4.4125    2.1767    0.3220 H   0  0  0  0  0  0  0  0  0  0  0  0
    4.8745    1.0909   -1.0822 H   0  0  0  0  0  0  0  0  0  0  0  0
    4.0115    0.3782    1.6158 H   0  0  0  0  0  0  0  0  0  0  0  0
    4.3901   -0.7076    0.2281 H   0  0  0  0  0  0  0  0  0  0  0  0
    1.7555   -0.1148    1.2431 H   0  0  0  0  0  0  0  0  0  0  0  0
   -0.0146   -0.1484   -1.8742 H   0  0  0  0  0  0  0  0  0  0  0  0
    0.4243   -1.8762   -1.5804 H   0  0  0  0  0  0  0  0  0  0  0  0
    0.0492   -1.5738    2.0426 H   0  0  0  0  0  0  0  0  0  0  0  0
   -0.7279   -2.6575    0.8679 H   0  0  0  0  0  0  0  0  0  0  0  0
    1.0287   -2.3273    0.7287 H   0  0  0  0  0  0  0  0  0  0  0  0
   -2.1600   -0.8716    1.0322 H   0  0  0  0  0  0  0  0  0  0  0  0
   -2.1135   -1.5265   -0.6137 H   0  0  0  0  0  0  0  0  0  0  0  0
   -2.0373    0.7948   -1.5550 H   0  0  0  0  0  0  0  0  0  0  0  0
   -2.6388    2.0041    0.9844 H   0  0  0  0  0  0  0  0  0  0  0  0
   -1.7945    2.5914   -0.3473 H   0  0  0  0  0  0  0  0  0  0  0  0
   -4.0895   -0.4585   -1.0103 H   0  0  0  0  0  0  0  0  0  0  0  0
   -4.2140    1.3299   -1.0571 H   0  0  0  0  0  0  0  0  0  0  0  0
   -5.0979    0.9552    0.9214 H   0  0  0  0  0  0  0  0  0  0  0  0
  1  2  1  0
  2  3  1  0
  3  4  1  0
  4  5  2  0
  4  6  1  0
  6  7  1  0
  7  8  1  0
  7  9  1  0
  9 10  1  0
 10 11  1  0
 10 12  1  0
 12 13  1  0
  1 14  1  0
  1 15  1  0
  1 16  1  0
  2 17  1  0
  2 18  1  0
  3 19  1  0
  6 20  1  0
  6 21  1  0
  8 22  1  0
  8 23  1  0
  8 24  1  0
  9 25  1  0
  9 26  1  0
 10 27  1  6
 11 28  1  0
 11 29  1  0
 12 30  1  0
 12 31  1  0
 13 32  1  0
M  END
$$$$
