
     RDKit          3D

 28 28  0  0  0  0  0  0  0  0999 V2000
    4.7510   -0.6899   -0.6696 C   0  0  0  0  0  0  0  0  0  0  0  0
    3.5367   -0.8349    0.1110 N   0  0  0  0  0  0  0  0  0  0  0  0
    2.3140   -0.3777   -0.4376 C   0  0  0  0  0  0  0  0  0  0  0  0
    2.3359    0.1455   -1.6038 O   0  0  0  0  0  0  0  0  0  0  0  0
    1.0821   -0.4792    0.2537 N   0  0  0  0  0  0  0  0  0  0  0  0
   -0.1204    0.0048   -0.3620 C   0  0  0  0  0  0  0  0  0  0  0  0
   -1.1666   -1.0781   -0.5113 C   0  0  0  0  0  0  0  0  0  0  0  0
   -2.2946   -0.7534    0.3041 N   0  0  0  0  0  0  0  0  0  0  0  0
   -3.2701    0.0719   -0.3614 C   0  0  0  0  0  0  0  0  0  0  0  0
   -2.9512    1.5098   -0.4125 C   0  0  0  0  0  0  0  0  0  0  0  0
   -1.5853    1.8729   -0.4431 N   0  0  0  0  0  0  0  0  0  0  0  0
   -0.7157    1.1766    0.4336 C   0  0  0  0  0  0  0  0  0  0  0  0
    4.4601   -0.7150   -1.7504 H   0  0  0  0  0  0  0  0  0  0  0  0
    5.2451    0.2942   -0.4585 H   0  0  0  0  0  0  0  0  0  0  0  0
    5.4556   -1.5151   -0.4268 H   0  0  0  0  0  0  0  0  0  0  0  0
    3.5412   -1.2665    1.0642 H   0  0  0  0  0  0  0  0  0  0  0  0
    1.0989   -0.9139    1.2096 H   0  0  0  0  0  0  0  0  0  0  0  0
    0.1346    0.4115   -1.3595 H   0  0  0  0  0  0  0  0  0  0  0  0
   -1.4402   -1.2444   -1.5651 H   0  0  0  0  0  0  0  0  0  0  0  0
   -0.7123   -2.0330   -0.1235 H   0  0  0  0  0  0  0  0  0  0  0  0
   -2.7323   -1.5760    0.7706 H   0  0  0  0  0  0  0  0  0  0  0  0
   -4.2340   -0.0717    0.1868 H   0  0  0  0  0  0  0  0  0  0  0  0
   -3.4457   -0.3722   -1.3796 H   0  0  0  0  0  0  0  0  0  0  0  0
   -3.4492    2.0836    0.4236 H   0  0  0  0  0  0  0  0  0  0  0  0
   -3.4286    1.9334   -1.3463 H   0  0  0  0  0  0  0  0  0  0  0  0
   -1.1515    1.9390   -1.3861 H   0  0  0  0  0  0  0  0  0  0  0  0
    0.0703    1.7747    0.9095 H   0  0  0  0  0  0  0  0  0  0  0  0
   -1.3277    0.7033    1.2571 H   0  0  0  0  0  0  0  0  0  0  0  0
  1  2  1  0
  2  3  1  0
  3  4  2  0
  3  5  1  0
  5  6  1  0
  6  7  1  0
  7  8  1  0
  8  9  1  0
  9 10  1  0
 10 11  1  0
 11 12  1  0
 12  6  1  0
  1 13  1  0
  1 14  1  0
  1 15  1  0
  2 16  1  0
  5 17  1  0
  6 18  1  0
  7 19  1  0
  7 20  1  0
  8 21  1  0
  9 22  1  0
  9 23  1  0
 10 24  1  0
 10 25  1  0
 11 26  1  0
 12 27  1  0
 12 28  1  0
M  END
$$$$

     RDKit          3D

 28 28  0  0  0  0  0  0  0  0999 V2000
    4.8344    0.1248    0.2770 C   0  0  0  0  0  0  0  0  0  0  0  0
    3.5512    0.7860    0.1189 N   0  0  0  0  0  0  0  0  0  0  0  0
    2.3567    0.0268    0.2165 C   0  0  0  0  0  0  0  0  0  0  0  0
    2.3871   -1.2113    0.4378 O   0  0  0  0  0  0  0  0  0  0  0  0
    1.0924    0.6521    0.0653 N   0  0  0  0  0  0  0  0  0  0  0  0
   -0.1058   -0.1419    0.1689 C   0  0  0  0  0  0  0  0  0  0  0  0
   -0.9732    0.4563    1.2372 C   0  0  0  0  0  0  0  0  0  0  0  0
   -2.1615    0.9493    0.6717 N   0  0  0  0  0  0  0  0  0  0  0  0
   -3.2172    0.0567    0.4520 C   0  0  0  0  0  0  0  0  0  0  0  0
   -3.1199   -0.8665   -0.6975 C   0  0  0  0  0  0  0  0  0  0  0  0
   -1.8458   -1.1506   -1.2184 N   0  0  0  0  0  0  0  0  0  0  0  0
   -0.8568   -0.1443   -1.1660 C   0  0  0  0  0  0  0  0  0  0  0  0
    5.5744    0.5975   -0.4023 H   0  0  0  0  0  0  0  0  0  0  0  0
    5.1125    0.2401    1.3481 H   0  0  0  0  0  0  0  0  0  0  0  0
    4.6958   -0.9505    0.0663 H   0  0  0  0  0  0  0  0  0  0  0  0
    3.5153    1.8141   -0.0652 H   0  0  0  0  0  0  0  0  0  0  0  0
    1.0023    1.6742   -0.1194 H   0  0  0  0  0  0  0  0  0  0  0  0
    0.1420   -1.2062    0.3663 H   0  0  0  0  0  0  0  0  0  0  0  0
   -0.4217    1.1886    1.8738 H   0  0  0  0  0  0  0  0  0  0  0  0
   -1.2404   -0.3819    1.9460 H   0  0  0  0  0  0  0  0  0  0  0  0
   -2.1471    1.8345    0.1893 H   0  0  0  0  0  0  0  0  0  0  0  0
   -3.4006   -0.5219    1.4066 H   0  0  0  0  0  0  0  0  0  0  0  0
   -4.1669    0.6618    0.3370 H   0  0  0  0  0  0  0  0  0  0  0  0
   -3.7782   -0.5156   -1.5459 H   0  0  0  0  0  0  0  0  0  0  0  0
   -3.5880   -1.8536   -0.4029 H   0  0  0  0  0  0  0  0  0  0  0  0
   -1.9466   -1.4731   -2.2149 H   0  0  0  0  0  0  0  0  0  0  0  0
   -0.0772   -0.3729   -1.9333 H   0  0  0  0  0  0  0  0  0  0  0  0
   -1.2174    0.8781   -1.4126 H   0  0  0  0  0  0  0  0  0  0  0  0
  1  2  1  0
  2  3  1  0
  3  4  2  0
  3  5  1  0
  5  6  1  0
  6  7  1  0
  7  8  1  0
  8  9  1  0
  9 10  1  0
 10 11  1  0
 11 12  1  0
 12  6  1  0
  1 13  1  0
  1 14  1  0
  1 15  1  0
  2 16  1  0
  5 17  1  0
  6 18  1  0
  7 19  1  0
  7 20  1  0
  8 21  1  0
  9 22  1  0
  9 23  1  0
 10 24  1  0
 10 25  1  0
 11 26  1  0
 12 27  1  0
 12 28  1  0
M  END
$$$$

     RDKit          3D

 28 28  0  0  0  0  0  0  0  0999 V2000
    4.5851   -0.4318   -1.0903 C   0  0  0  0  0  0  0  0  0  0  0  0
    3.5496   -0.2501   -0.0940 N   0  0  0  0  0  0  0  0  0  0  0  0
    2.2011   -0.1376   -0.4966 C   0  0  0  0  0  0  0  0  0  0  0  0
    1.9231   -0.1974   -1.7183 O   0  0  0  0  0  0  0  0  0  0  0  0
    1.1266    0.0414    0.4057 N   0  0  0  0  0  0  0  0  0  0  0  0
   -0.2467    0.1600    0.0511 C   0  0  0  0  0  0  0  0  0  0  0  0
   -0.8548    1.4810    0.4225 C   0  0  0  0  0  0  0  0  0  0  0  0
   -2.2029    1.6441    0.0544 N   0  0  0  0  0  0  0  0  0  0  0  0
   -2.7324    0.7544   -0.9118 C   0  0  0  0  0  0  0  0  0  0  0  0
   -3.1485   -0.5923   -0.3509 C   0  0  0  0  0  0  0  0  0  0  0  0
   -2.0437   -1.4891   -0.2507 N   0  0  0  0  0  0  0  0  0  0  0  0
   -0.9963   -1.0135    0.6198 C   0  0  0  0  0  0  0  0  0  0  0  0
    5.3952    0.3220   -0.8966 H   0  0  0  0  0  0  0  0  0  0  0  0
    5.0588   -1.4213   -1.0230 H   0  0  0  0  0  0  0  0  0  0  0  0
    4.2060   -0.2060   -2.1128 H   0  0  0  0  0  0  0  0  0  0  0  0
    3.7862   -0.2021    0.9055 H   0  0  0  0  0  0  0  0  0  0  0  0
    1.3733    0.0897    1.4240 H   0  0  0  0  0  0  0  0  0  0  0  0
   -0.2840    0.0821   -1.0730 H   0  0  0  0  0  0  0  0  0  0  0  0
   -0.2518    2.2716   -0.0717 H   0  0  0  0  0  0  0  0  0  0  0  0
   -0.7839    1.5592    1.5452 H   0  0  0  0  0  0  0  0  0  0  0  0
   -2.8878    1.7816    0.8099 H   0  0  0  0  0  0  0  0  0  0  0  0
   -2.1074    0.6192   -1.8123 H   0  0  0  0  0  0  0  0  0  0  0  0
   -3.6920    1.2157   -1.2953 H   0  0  0  0  0  0  0  0  0  0  0  0
   -3.9100   -1.0571   -1.0087 H   0  0  0  0  0  0  0  0  0  0  0  0
   -3.6058   -0.4655    0.6449 H   0  0  0  0  0  0  0  0  0  0  0  0
   -1.7121   -1.9005   -1.1261 H   0  0  0  0  0  0  0  0  0  0  0  0
   -0.2998   -1.8750    0.7915 H   0  0  0  0  0  0  0  0  0  0  0  0
   -1.4453   -0.7828    1.5977 H   0  0  0  0  0  0  0  0  0  0  0  0
  1  2  1  0
  2  3  1  0
  3  4  2  0
  3  5  1  0
  5  6  1  0
  6  7  1  0
  7  8  1  0
  8  9  1  0
  9 10  1  0
 10 11  1  0
 11 12  1  0
 12  6  1  0
  1 13  1  0
  1 14  1  0
  1 15  1  0
  2 16  1  0
  5 17  1  0
  6 18  1  0
  7 19  1  0
  7 20  1  0
  8 21  1  0
  9 22  1  0
  9 23  1  0
 10 24  1  0
 10 25  1  0
 11 26  1  0
 12 27  1  0
 12 28  1  0
M  END
$$$$

     RDKit          3D

 28 28  0  0  0  0  0  0  0  0999 V2000
    4.7791    0.6919   -0.6517 C   0  0  0  0  0  0  0  0  0  0  0  0
    3.6249   -0.1443   -0.3582 N   0  0  0  0  0  0  0  0  0  0  0  0
    2.3017    0.3863   -0.2876 C   0  0  0  0  0  0  0  0  0  0  0  0
    2.1421    1.6028   -0.4849 O   0  0  0  0  0  0  0  0  0  0  0  0
    1.1836   -0.4345   -0.0013 N   0  0  0  0  0  0  0  0  0  0  0  0
   -0.1783    0.0630    0.0800 C   0  0  0  0  0  0  0  0  0  0  0  0
   -1.0708   -0.5257   -0.9604 C   0  0  0  0  0  0  0  0  0  0  0  0
   -2.0871   -1.3114   -0.3364 N   0  0  0  0  0  0  0  0  0  0  0  0
   -3.2172   -0.5697    0.1294 C   0  0  0  0  0  0  0  0  0  0  0  0
   -2.8778    0.8030    0.6484 C   0  0  0  0  0  0  0  0  0  0  0  0
   -1.8850    0.7753    1.6962 N   0  0  0  0  0  0  0  0  0  0  0  0
   -0.7876   -0.1132    1.4241 C   0  0  0  0  0  0  0  0  0  0  0  0
    4.3850    1.6012   -1.1548 H   0  0  0  0  0  0  0  0  0  0  0  0
    5.2630    0.9112    0.3215 H   0  0  0  0  0  0  0  0  0  0  0  0
    5.4244    0.1135   -1.3406 H   0  0  0  0  0  0  0  0  0  0  0  0
    3.7345   -1.1731   -0.1883 H   0  0  0  0  0  0  0  0  0  0  0  0
    1.3929   -1.4586    0.1554 H   0  0  0  0  0  0  0  0  0  0  0  0
   -0.1105    1.1575   -0.1239 H   0  0  0  0  0  0  0  0  0  0  0  0
   -1.5029    0.2487   -1.6500 H   0  0  0  0  0  0  0  0  0  0  0  0
   -0.4523   -1.2044   -1.5913 H   0  0  0  0  0  0  0  0  0  0  0  0
   -2.4448   -1.9941   -1.0685 H   0  0  0  0  0  0  0  0  0  0  0  0
   -3.6963   -1.1571    0.9404 H   0  0  0  0  0  0  0  0  0  0  0  0
   -3.9558   -0.4471   -0.6896 H   0  0  0  0  0  0  0  0  0  0  0  0
   -2.6145    1.5005   -0.1746 H   0  0  0  0  0  0  0  0  0  0  0  0
   -3.8039    1.2190    1.1056 H   0  0  0  0  0  0  0  0  0  0  0  0
   -2.3519    0.5876    2.5889 H   0  0  0  0  0  0  0  0  0  0  0  0
   -0.0271    0.0277    2.2067 H   0  0  0  0  0  0  0  0  0  0  0  0
   -1.1675   -1.1557    1.5356 H   0  0  0  0  0  0  0  0  0  0  0  0
  1  2  1  0
  2  3  1  0
  3  4  2  0
  3  5  1  0
  5  6  1  0
  6  7  1  0
  7  8  1  0
  8  9  1  0
  9 10  1  0
 10 11  1  0
 11 12  1  0
 12  6  1  0
  1 13  1  0
  1 14  1  0
  1 15  1  0
  2 16  1  0
  5 17  1  0
  6 18  1  0
  7 19  1  0
  7 20  1  0
  8 21  1  0
  9 22  1  0
  9 23  1  0
 10 24  1  0
 10 25  1  0
 11 26  1  0
 12 27  1  0
 12 28  1  0
M  END
$$$$

     RDKit          3D

 28 28  0  0  0  0  0  0  0  0999 V2000
    4.7495   -0.8131   -0.0900 C   0  0  0  0  0  0  0  0  0  0  0  0
    3.6081    0.0755   -0.2205 N   0  0  0  0  0  0  0  0  0  0  0  0
    2.2819   -0.3615    0.0083 C   0  0  0  0  0  0  0  0  0  0  0  0
    2.1095   -1.5591    0.3334 O   0  0  0  0  0  0  0  0  0  0  0  0
    1.1376    0.4590   -0.1043 N   0  0  0  0  0  0  0  0  0  0  0  0
   -0.2042    0.0192    0.1266 C   0  0  0  0  0  0  0  0  0  0  0  0
   -0.8717    0.7281    1.2687 C   0  0  0  0  0  0  0  0  0  0  0  0
   -2.1224    0.0470    1.5858 N   0  0  0  0  0  0  0  0  0  0  0  0
   -3.0807    0.1420    0.5014 C   0  0  0  0  0  0  0  0  0  0  0  0
   -2.9736   -1.0116   -0.4438 C   0  0  0  0  0  0  0  0  0  0  0  0
   -1.8432   -0.9825   -1.3138 N   0  0  0  0  0  0  0  0  0  0  0  0
   -0.9792    0.1473   -1.1642 C   0  0  0  0  0  0  0  0  0  0  0  0
    5.0906   -1.2196   -1.0581 H   0  0  0  0  0  0  0  0  0  0  0  0
    4.5366   -1.6506    0.6015 H   0  0  0  0  0  0  0  0  0  0  0  0
    5.5944   -0.1799    0.2952 H   0  0  0  0  0  0  0  0  0  0  0  0
    3.7405    1.0784   -0.4918 H   0  0  0  0  0  0  0  0  0  0  0  0
    1.2828    1.4544   -0.3747 H   0  0  0  0  0  0  0  0  0  0  0  0
   -0.1559   -1.0698    0.4042 H   0  0  0  0  0  0  0  0  0  0  0  0
   -0.2214    0.6087    2.1588 H   0  0  0  0  0  0  0  0  0  0  0  0
   -1.1273    1.7704    1.0530 H   0  0  0  0  0  0  0  0  0  0  0  0
   -2.5264    0.5686    2.3956 H   0  0  0  0  0  0  0  0  0  0  0  0
   -4.0921    0.0333    0.9992 H   0  0  0  0  0  0  0  0  0  0  0  0
   -3.1099    1.1152    0.0139 H   0  0  0  0  0  0  0  0  0  0  0  0
   -3.0526   -1.9642    0.1391 H   0  0  0  0  0  0  0  0  0  0  0  0
   -3.8999   -1.0199   -1.0904 H   0  0  0  0  0  0  0  0  0  0  0  0
   -2.0992   -1.1755   -2.2860 H   0  0  0  0  0  0  0  0  0  0  0  0
   -1.4784    1.1297   -1.1940 H   0  0  0  0  0  0  0  0  0  0  0  0
   -0.2934    0.1386   -2.0535 H   0  0  0  0  0  0  0  0  0  0  0  0
  1  2  1  0
  2  3  1  0
  3  4  2  0
  3  5  1  0
  5  6  1  0
  6  7  1  0
  7  8  1  0
  8  9  1  0
  9 10  1  0
 10 11  1  0
 11 12  1  0
 12  6  1  0
  1 13  1  0
  1 14  1  0
  1 15  1  0
  2 16  1  0
  5 17  1  0
  6 18  1  0
  7 19  1  0
  7 20  1  0
  8 21  1  0
  9 22  1  0
  9 23  1  0
 10 24  1  0
 10 25  1  0
 11 26  1  0
 12 27  1  0
 12 28  1  0
M  END
$$$$

     RDKit          3D

 28 28  0  0  0  0  0  0  0  0999 V2000
    4.8398   -0.2543    0.3269 C   0  0  0  0  0  0  0  0  0  0  0  0
    3.6039   -0.0814   -0.4173 N   0  0  0  0  0  0  0  0  0  0  0  0
    2.3205   -0.1472    0.2242 C   0  0  0  0  0  0  0  0  0  0  0  0
    2.3292   -0.3627    1.4644 O   0  0  0  0  0  0  0  0  0  0  0  0
    1.1127    0.0233   -0.5117 N   0  0  0  0  0  0  0  0  0  0  0  0
   -0.1568   -0.0580    0.2162 C   0  0  0  0  0  0  0  0  0  0  0  0
   -0.9045    1.2199   -0.0634 C   0  0  0  0  0  0  0  0  0  0  0  0
   -1.9134    1.5191    0.9140 N   0  0  0  0  0  0  0  0  0  0  0  0
   -3.2005    1.0562    0.4665 C   0  0  0  0  0  0  0  0  0  0  0  0
   -3.1554   -0.4633    0.3069 C   0  0  0  0  0  0  0  0  0  0  0  0
   -2.2706   -0.7641   -0.7910 N   0  0  0  0  0  0  0  0  0  0  0  0
   -0.9737   -1.2100   -0.3714 C   0  0  0  0  0  0  0  0  0  0  0  0
    4.5816   -0.5615    1.3596 H   0  0  0  0  0  0  0  0  0  0  0  0
    5.3771    0.7150    0.2819 H   0  0  0  0  0  0  0  0  0  0  0  0
    5.4957   -1.0253   -0.1211 H   0  0  0  0  0  0  0  0  0  0  0  0
    3.5885    0.0974   -1.4449 H   0  0  0  0  0  0  0  0  0  0  0  0
    1.1419    0.2005   -1.5389 H   0  0  0  0  0  0  0  0  0  0  0  0
    0.0187   -0.2475    1.2726 H   0  0  0  0  0  0  0  0  0  0  0  0
   -0.1966    2.0916   -0.1307 H   0  0  0  0  0  0  0  0  0  0  0  0
   -1.3315    1.1188   -1.0952 H   0  0  0  0  0  0  0  0  0  0  0  0
   -1.6859    1.0268    1.7922 H   0  0  0  0  0  0  0  0  0  0  0  0
   -3.4823    1.4547   -0.5284 H   0  0  0  0  0  0  0  0  0  0  0  0
   -3.9605    1.3543    1.2175 H   0  0  0  0  0  0  0  0  0  0  0  0
   -4.1662   -0.8079    0.0778 H   0  0  0  0  0  0  0  0  0  0  0  0
   -2.8405   -0.9222    1.2576 H   0  0  0  0  0  0  0  0  0  0  0  0
   -2.6976   -1.3113   -1.5454 H   0  0  0  0  0  0  0  0  0  0  0  0
   -1.0194   -2.0378    0.3714 H   0  0  0  0  0  0  0  0  0  0  0  0
   -0.4544   -1.6233   -1.2616 H   0  0  0  0  0  0  0  0  0  0  0  0
  1  2  1  0
  2  3  1  0
  3  4  2  0
  3  5  1  0
  5  6  1  0
  6  7  1  0
  7  8  1  0
  8  9  1  0
  9 10  1  0
 10 11  1  0
 11 12  1  0
 12  6  1  0
  1 13  1  0
  1 14  1  0
  1 15  1  0
  2 16  1  0
  5 17  1  0
  6 18  1  0
  7 19  1  0
  7 20  1  0
  8 21  1  0
  9 22  1  0
  9 23  1  0
 10 24  1  0
 10 25  1  0
 11 26  1  0
 12 27  1  0
 12 28  1  0
M  END
$$$$

     RDKit          3D

 28 28  0  0  0  0  0  0  0  0999 V2000
    4.7891   -0.1375   -0.0935 C   0  0  0  0  0  0  0  0  0  0  0  0
    3.4992    0.5091   -0.0026 N   0  0  0  0  0  0  0  0  0  0  0  0
    2.2922   -0.2418   -0.1006 C   0  0  0  0  0  0  0  0  0  0  0  0
    2.3217   -1.4890   -0.2692 O   0  0  0  0  0  0  0  0  0  0  0  0
    1.0243    0.3835   -0.0127 N   0  0  0  0  0  0  0  0  0  0  0  0
   -0.1917   -0.3831   -0.1129 C   0  0  0  0  0  0  0  0  0  0  0  0
   -1.0453   -0.2254    1.1426 C   0  0  0  0  0  0  0  0  0  0  0  0
   -1.5417    1.1052    1.1613 N   0  0  0  0  0  0  0  0  0  0  0  0
   -2.7311    1.3487    0.4342 C   0  0  0  0  0  0  0  0  0  0  0  0
   -3.2611    0.2171   -0.3677 C   0  0  0  0  0  0  0  0  0  0  0  0
   -2.3204   -0.4754   -1.1750 N   0  0  0  0  0  0  0  0  0  0  0  0
   -1.0274    0.1130   -1.2913 C   0  0  0  0  0  0  0  0  0  0  0  0
    4.8657   -0.8393   -0.9458 H   0  0  0  0  0  0  0  0  0  0  0  0
    5.5712    0.6489   -0.2902 H   0  0  0  0  0  0  0  0  0  0  0  0
    5.0299   -0.6090    0.8734 H   0  0  0  0  0  0  0  0  0  0  0  0
    3.3858    1.5420    0.1373 H   0  0  0  0  0  0  0  0  0  0  0  0
    0.9633    1.4135    0.1265 H   0  0  0  0  0  0  0  0  0  0  0  0
   -0.0140   -1.4603   -0.2586 H   0  0  0  0  0  0  0  0  0  0  0  0
   -0.3431   -0.3337    2.0206 H   0  0  0  0  0  0  0  0  0  0  0  0
   -1.7888   -1.0196    1.2344 H   0  0  0  0  0  0  0  0  0  0  0  0
   -1.5560    1.5635    2.0775 H   0  0  0  0  0  0  0  0  0  0  0  0
   -3.5627    1.6857    1.1166 H   0  0  0  0  0  0  0  0  0  0  0  0
   -2.5833    2.2311   -0.2530 H   0  0  0  0  0  0  0  0  0  0  0  0
   -3.8547   -0.5099    0.2628 H   0  0  0  0  0  0  0  0  0  0  0  0
   -4.0430    0.6446   -1.0646 H   0  0  0  0  0  0  0  0  0  0  0  0
   -2.1771   -1.4735   -0.8340 H   0  0  0  0  0  0  0  0  0  0  0  0
   -0.5711   -0.1635   -2.2574 H   0  0  0  0  0  0  0  0  0  0  0  0
   -1.1297    1.2157   -1.2582 H   0  0  0  0  0  0  0  0  0  0  0  0
  1  2  1  0
  2  3  1  0
  3  4  2  0
  3  5  1  0
  5  6  1  0
  6  7  1  0
  7  8  1  0
  8  9  1  0
  9 10  1  0
 10 11  1  0
 11 12  1  0
 12  6  1  0
  1 13  1  0
  1 14  1  0
  1 15  1  0
  2 16  1  0
  5 17  1  0
  6 18  1  0
  7 19  1  0
  7 20  1  0
  8 21  1  0
  9 22  1  0
  9 23  1  0
 10 24  1  0
 10 25  1  0
 11 26  1  0
 12 27  1  0
 12 28  1  0
M  END
$$$$

     RDKit          3D

 28 28  0  0  0  0  0  0  0  0999 V2000
    4.8528   -0.3628    0.2492 C   0  0  0  0  0  0  0  0  0  0  0  0
    3.4813   -0.6602    0.5583 N   0  0  0  0  0  0  0  0  0  0  0  0
    2.3778    0.0361    0.0316 C   0  0  0  0  0  0  0  0  0  0  0  0
    2.5713    0.9889   -0.7671 O   0  0  0  0  0  0  0  0  0  0  0  0
    1.0472   -0.3111    0.3801 N   0  0  0  0  0  0  0  0  0  0  0  0
   -0.1009    0.4125   -0.1672 C   0  0  0  0  0  0  0  0  0  0  0  0
   -0.9798    0.9456    0.9616 C   0  0  0  0  0  0  0  0  0  0  0  0
   -1.9438    0.0277    1.4100 N   0  0  0  0  0  0  0  0  0  0  0  0
   -3.1134   -0.1627    0.6735 C   0  0  0  0  0  0  0  0  0  0  0  0
   -3.1067    0.5521   -0.6248 C   0  0  0  0  0  0  0  0  0  0  0  0
   -2.0555    0.2081   -1.5114 N   0  0  0  0  0  0  0  0  0  0  0  0
   -0.9933   -0.5605   -0.9488 C   0  0  0  0  0  0  0  0  0  0  0  0
    4.9930    0.5450   -0.3365 H   0  0  0  0  0  0  0  0  0  0  0  0
    5.3707   -1.2530   -0.2142 H   0  0  0  0  0  0  0  0  0  0  0  0
    5.3943   -0.2091    1.2193 H   0  0  0  0  0  0  0  0  0  0  0  0
    3.2882   -1.4443    1.2172 H   0  0  0  0  0  0  0  0  0  0  0  0
    0.8304   -1.0976    1.0420 H   0  0  0  0  0  0  0  0  0  0  0  0
    0.2177    1.2135   -0.8455 H   0  0  0  0  0  0  0  0  0  0  0  0
   -0.2619    1.1444    1.8119 H   0  0  0  0  0  0  0  0  0  0  0  0
   -1.3890    1.9549    0.7107 H   0  0  0  0  0  0  0  0  0  0  0  0
   -1.8452   -0.3964    2.3141 H   0  0  0  0  0  0  0  0  0  0  0  0
   -3.9977    0.1838    1.2574 H   0  0  0  0  0  0  0  0  0  0  0  0
   -3.3134   -1.2526    0.4604 H   0  0  0  0  0  0  0  0  0  0  0  0
   -3.1144    1.6655   -0.4899 H   0  0  0  0  0  0  0  0  0  0  0  0
   -4.0796    0.3332   -1.1480 H   0  0  0  0  0  0  0  0  0  0  0  0
   -2.3503   -0.0879   -2.4617 H   0  0  0  0  0  0  0  0  0  0  0  0
   -0.4322   -1.1124   -1.7096 H   0  0  0  0  0  0  0  0  0  0  0  0
   -1.3477   -1.3006   -0.1878 H   0  0  0  0  0  0  0  0  0  0  0  0
  1  2  1  0
  2  3  1  0
  3  4  2  0
  3  5  1  0
  5  6  1  0
  6  7  1  0
  7  8  1  0
  8  9  1  0
  9 10  1  0
 10 11  1  0
 11 12  1  0
 12  6  1  0
  1 13  1  0
  1 14  1  0
  1 15  1  0
  2 16  1  0
  5 17  1  0
  6 18  1  0
  7 19  1  0
  7 20  1  0
  8 21  1  0
  9 22  1  0
  9 23  1  0
 10 24  1  0
 10 25  1  0
 11 26  1  0
 12 27  1  0
 12 28  1  0
M  END
$$$$
