
     RDKit          3D

 19 19  0  0  0  0  0  0  0  0999 V2000
   -1.0448    3.0909   -0.4812 O   0  0  0  0  0  0  0  0  0  0  0  0
   -1.3211    2.0631    0.1935 N   0  0  0  0  0  0  0  0  0  0  0  0
   -0.3987    0.9954    0.1551 N   0  0  0  0  0  0  0  0  0  0  0  0
    0.8001    1.1465    0.9221 C   0  0  0  0  0  0  0  0  0  0  0  0
    1.9322    0.3736    0.3731 C   0  0  0  0  0  0  0  0  0  0  0  0
    3.1271    0.7233    0.6026 O   0  0  0  0  0  0  0  0  0  0  0  0
    1.6479   -0.7618   -0.4120 N   0  0  0  0  0  0  0  0  0  0  0  0
    0.4578   -0.8835   -1.1959 C   0  0  0  0  0  0  0  0  0  0  0  0
   -0.7271   -0.1479   -0.6391 C   0  0  1  0  0  0  0  0  0  0  0  0
   -1.5617   -1.1215    0.1198 C   0  0  0  0  0  0  0  0  0  0  0  0
   -1.9294   -2.1766   -0.4469 O   0  0  0  0  0  0  0  0  0  0  0  0
   -1.9465   -0.9069    1.4240 O   0  0  0  0  0  0  0  0  0  0  0  0
    0.5772    0.8053    1.9615 H   0  0  0  0  0  0  0  0  0  0  0  0
    1.0598    2.2339    1.0161 H   0  0  0  0  0  0  0  0  0  0  0  0
    2.3372   -1.5715   -0.4334 H   0  0  0  0  0  0  0  0  0  0  0  0
    0.7139   -0.5382   -2.2347 H   0  0  0  0  0  0  0  0  0  0  0  0
    0.1965   -1.9608   -1.3138 H   0  0  0  0  0  0  0  0  0  0  0  0
   -1.3544    0.1967   -1.4903 H   0  0  0  0  0  0  0  0  0  0  0  0
   -2.5658   -1.5602    1.8796 H   0  0  0  0  0  0  0  0  0  0  0  0
  1  2  2  0
  2  3  1  0
  3  4  1  0
  4  5  1  0
  5  6  2  0
  5  7  1  0
  7  8  1  0
  8  9  1  0
  9 10  1  0
 10 11  2  0
 10 12  1  0
  9  3  1  0
  4 13  1  0
  4 14  1  0
  7 15  1  0
  8 16  1  0
  8 17  1  0
  9 18  1  6
 12 19  1  0
M  END
$$$$

     RDKit          3D

 19 19  0  0  0  0  0  0  0  0999 V2000
   -1.3987    2.8224   -0.6664 O   0  0  0  0  0  0  0  0  0  0  0  0
   -0.4467    2.2236   -0.0904 N   0  0  0  0  0  0  0  0  0  0  0  0
   -0.5267    0.8710    0.2252 N   0  0  0  0  0  0  0  0  0  0  0  0
   -1.8169    0.2646    0.4776 C   0  0  0  0  0  0  0  0  0  0  0  0
   -1.7862   -1.1294   -0.0443 C   0  0  0  0  0  0  0  0  0  0  0  0
   -2.8020   -1.8487    0.1365 O   0  0  0  0  0  0  0  0  0  0  0  0
   -0.6576   -1.6567   -0.7290 N   0  0  0  0  0  0  0  0  0  0  0  0
    0.6006   -0.9395   -0.8496 C   0  0  0  0  0  0  0  0  0  0  0  0
    0.6421    0.0547    0.3080 C   0  0  1  0  0  0  0  0  0  0  0  0
    1.8984    0.8059    0.3625 C   0  0  0  0  0  0  0  0  0  0  0  0
    1.9057    2.0636    0.3363 O   0  0  0  0  0  0  0  0  0  0  0  0
    3.0867    0.0924    0.4442 O   0  0  0  0  0  0  0  0  0  0  0  0
   -2.6608    0.8495    0.1026 H   0  0  0  0  0  0  0  0  0  0  0  0
   -1.9247    0.2155    1.5891 H   0  0  0  0  0  0  0  0  0  0  0  0
   -0.7254   -2.6013   -1.1688 H   0  0  0  0  0  0  0  0  0  0  0  0
    1.4769   -1.6049   -0.7176 H   0  0  0  0  0  0  0  0  0  0  0  0
    0.6888   -0.4222   -1.8291 H   0  0  0  0  0  0  0  0  0  0  0  0
    0.5302   -0.5806    1.2344 H   0  0  0  0  0  0  0  0  0  0  0  0
    3.9163    0.5202    0.8788 H   0  0  0  0  0  0  0  0  0  0  0  0
  1  2  2  0
  2  3  1  0
  3  4  1  0
  4  5  1  0
  5  6  2  0
  5  7  1  0
  7  8  1  0
  8  9  1  0
  9 10  1  0
 10 11  2  0
 10 12  1  0
  9  3  1  0
  4 13  1  0
  4 14  1  0
  7 15  1  0
  8 16  1  0
  8 17  1  0
  9 18  1  1
 12 19  1  0
M  END
$$$$

     RDKit          3D

 19 19  0  0  0  0  0  0  0  0999 V2000
    1.0129    2.7456   -1.4434 O   0  0  0  0  0  0  0  0  0  0  0  0
    0.1395    1.8691   -1.4705 N   0  0  0  0  0  0  0  0  0  0  0  0
    0.1141    0.8649   -0.5210 N   0  0  0  0  0  0  0  0  0  0  0  0
    1.0790    0.7601    0.5649 C   0  0  0  0  0  0  0  0  0  0  0  0
    1.8956   -0.4631    0.2339 C   0  0  0  0  0  0  0  0  0  0  0  0
    3.0740   -0.6124    0.5840 O   0  0  0  0  0  0  0  0  0  0  0  0
    1.1999   -1.4590   -0.5284 N   0  0  0  0  0  0  0  0  0  0  0  0
   -0.2420   -1.5172   -0.3946 C   0  0  0  0  0  0  0  0  0  0  0  0
   -0.9023   -0.1677   -0.5545 C   0  0  1  0  0  0  0  0  0  0  0  0
   -1.8429    0.0965    0.5624 C   0  0  0  0  0  0  0  0  0  0  0  0
   -2.8414   -0.6366    0.7944 O   0  0  0  0  0  0  0  0  0  0  0  0
   -1.6602    1.1779    1.4113 O   0  0  0  0  0  0  0  0  0  0  0  0
    1.6899    1.6736    0.5471 H   0  0  0  0  0  0  0  0  0  0  0  0
    0.5881    0.5477    1.5215 H   0  0  0  0  0  0  0  0  0  0  0  0
    1.7511   -2.1035   -1.1490 H   0  0  0  0  0  0  0  0  0  0  0  0
   -0.5994   -2.1854   -1.2199 H   0  0  0  0  0  0  0  0  0  0  0  0
   -0.5550   -2.0124    0.5509 H   0  0  0  0  0  0  0  0  0  0  0  0
   -1.4956   -0.1339   -1.4888 H   0  0  0  0  0  0  0  0  0  0  0  0
   -2.4055    1.5558    1.9997 H   0  0  0  0  0  0  0  0  0  0  0  0
  1  2  2  0
  2  3  1  0
  3  4  1  0
  4  5  1  0
  5  6  2  0
  5  7  1  0
  7  8  1  0
  8  9  1  0
  9 10  1  0
 10 11  2  0
 10 12  1  0
  9  3  1  0
  4 13  1  0
  4 14  1  0
  7 15  1  0
  8 16  1  0
  8 17  1  0
  9 18  1  6
 12 19  1  0
M  END
$$$$

     RDKit          3D

 19 19  0  0  0  0  0  0  0  0999 V2000
   -0.9549    2.9898    0.3970 O   0  0  0  0  0  0  0  0  0  0  0  0
   -0.5971    1.9174    0.9374 N   0  0  0  0  0  0  0  0  0  0  0  0
    0.0782    0.9982    0.1267 N   0  0  0  0  0  0  0  0  0  0  0  0
    1.5277    1.0126    0.0852 C   0  0  0  0  0  0  0  0  0  0  0  0
    1.9863   -0.3677    0.3814 C   0  0  0  0  0  0  0  0  0  0  0  0
    3.1292   -0.5224    0.8910 O   0  0  0  0  0  0  0  0  0  0  0  0
    1.1315   -1.4641    0.0847 N   0  0  0  0  0  0  0  0  0  0  0  0
    0.0928   -1.2363   -0.9033 C   0  0  0  0  0  0  0  0  0  0  0  0
   -0.6564    0.0492   -0.6570 C   0  0  1  0  0  0  0  0  0  0  0  0
   -1.9282   -0.2744    0.0284 C   0  0  0  0  0  0  0  0  0  0  0  0
   -2.7041   -1.0945   -0.5171 O   0  0  0  0  0  0  0  0  0  0  0  0
   -2.2655    0.2987    1.2301 O   0  0  0  0  0  0  0  0  0  0  0  0
    1.9456    1.7572    0.7886 H   0  0  0  0  0  0  0  0  0  0  0  0
    1.8358    1.2583   -0.9524 H   0  0  0  0  0  0  0  0  0  0  0  0
    1.2685   -2.3652    0.5653 H   0  0  0  0  0  0  0  0  0  0  0  0
   -0.6015   -2.0959   -0.8405 H   0  0  0  0  0  0  0  0  0  0  0  0
    0.5234   -1.2508   -1.9239 H   0  0  0  0  0  0  0  0  0  0  0  0
   -0.9307    0.5486   -1.6149 H   0  0  0  0  0  0  0  0  0  0  0  0
   -2.8808   -0.1586    1.8934 H   0  0  0  0  0  0  0  0  0  0  0  0
  1  2  2  0
  2  3  1  0
  3  4  1  0
  4  5  1  0
  5  6  2  0
  5  7  1  0
  7  8  1  0
  8  9  1  0
  9 10  1  0
 10 11  2  0
 10 12  1  0
  9  3  1  0
  4 13  1  0
  4 14  1  0
  7 15  1  0
  8 16  1  0
  8 17  1  0
  9 18  1  6
 12 19  1  0
M  END
$$$$

     RDKit          3D

 19 19  0  0  0  0  0  0  0  0999 V2000
   -0.4207    3.3288   -0.0743 O   0  0  0  0  0  0  0  0  0  0  0  0
    0.2276    2.3031   -0.3613 N   0  0  0  0  0  0  0  0  0  0  0  0
   -0.2524    1.0113   -0.1473 N   0  0  0  0  0  0  0  0  0  0  0  0
   -1.6507    0.7112   -0.3686 C   0  0  0  0  0  0  0  0  0  0  0  0
   -2.0596   -0.5127    0.4103 C   0  0  0  0  0  0  0  0  0  0  0  0
   -3.1995   -0.6007    0.9353 O   0  0  0  0  0  0  0  0  0  0  0  0
   -1.1044   -1.5535    0.5224 N   0  0  0  0  0  0  0  0  0  0  0  0
    0.1772   -1.3663   -0.1199 C   0  0  0  0  0  0  0  0  0  0  0  0
    0.6877    0.0032    0.2967 C   0  0  1  0  0  0  0  0  0  0  0  0
    2.0454    0.2402   -0.2078 C   0  0  0  0  0  0  0  0  0  0  0  0
    2.2880    1.2219   -0.9338 O   0  0  0  0  0  0  0  0  0  0  0  0
    3.0411   -0.6572    0.1473 O   0  0  0  0  0  0  0  0  0  0  0  0
   -1.7667    0.5267   -1.4560 H   0  0  0  0  0  0  0  0  0  0  0  0
   -2.3165    1.5482   -0.1071 H   0  0  0  0  0  0  0  0  0  0  0  0
   -1.3144   -2.4124    1.0425 H   0  0  0  0  0  0  0  0  0  0  0  0
    0.9064   -2.1481    0.1632 H   0  0  0  0  0  0  0  0  0  0  0  0
    0.0056   -1.3286   -1.2231 H   0  0  0  0  0  0  0  0  0  0  0  0
    0.6959    0.0554    1.4111 H   0  0  0  0  0  0  0  0  0  0  0  0
    4.0099   -0.3704    0.0702 H   0  0  0  0  0  0  0  0  0  0  0  0
  1  2  2  0
  2  3  1  0
  3  4  1  0
  4  5  1  0
  5  6  2  0
  5  7  1  0
  7  8  1  0
  8  9  1  0
  9 10  1  0
 10 11  2  0
 10 12  1  0
  9  3  1  0
  4 13  1  0
  4 14  1  0
  7 15  1  0
  8 16  1  0
  8 17  1  0
  9 18  1  1
 12 19  1  0
M  END
$$$$

     RDKit          3D

 19 19  0  0  0  0  0  0  0  0999 V2000
   -0.7724    2.6929   -0.9044 O   0  0  0  0  0  0  0  0  0  0  0  0
   -0.0300    2.1147   -0.0634 N   0  0  0  0  0  0  0  0  0  0  0  0
   -0.3169    0.8203    0.3053 N   0  0  0  0  0  0  0  0  0  0  0  0
   -1.6346    0.4564    0.7247 C   0  0  0  0  0  0  0  0  0  0  0  0
   -1.9133   -0.9097    0.1856 C   0  0  0  0  0  0  0  0  0  0  0  0
   -3.0234   -1.4318    0.4648 O   0  0  0  0  0  0  0  0  0  0  0  0
   -0.9777   -1.6150   -0.6147 N   0  0  0  0  0  0  0  0  0  0  0  0
    0.3551   -1.1009   -0.8944 C   0  0  0  0  0  0  0  0  0  0  0  0
    0.6956   -0.1864    0.2767 C   0  0  1  0  0  0  0  0  0  0  0  0
    2.0666    0.3352    0.1951 C   0  0  0  0  0  0  0  0  0  0  0  0
    3.0185   -0.4871    0.1656 O   0  0  0  0  0  0  0  0  0  0  0  0
    2.3881    1.6793    0.1481 O   0  0  0  0  0  0  0  0  0  0  0  0
   -1.5931    0.3219    1.8441 H   0  0  0  0  0  0  0  0  0  0  0  0
   -2.4178    1.1783    0.4351 H   0  0  0  0  0  0  0  0  0  0  0  0
   -1.2260   -2.5397   -1.0321 H   0  0  0  0  0  0  0  0  0  0  0  0
    1.1050   -1.9132   -0.9430 H   0  0  0  0  0  0  0  0  0  0  0  0
    0.2801   -0.5340   -1.8436 H   0  0  0  0  0  0  0  0  0  0  0  0
    0.6627   -0.8571    1.1840 H   0  0  0  0  0  0  0  0  0  0  0  0
    3.3335    1.9757    0.3666 H   0  0  0  0  0  0  0  0  0  0  0  0
  1  2  2  0
  2  3  1  0
  3  4  1  0
  4  5  1  0
  5  6  2  0
  5  7  1  0
  7  8  1  0
  8  9  1  0
  9 10  1  0
 10 11  2  0
 10 12  1  0
  9  3  1  0
  4 13  1  0
  4 14  1  0
  7 15  1  0
  8 16  1  0
  8 17  1  0
  9 18  1  1
 12 19  1  0
M  END
$$$$

     RDKit          3D

 19 19  0  0  0  0  0  0  0  0999 V2000
   -0.8369    2.6775   -1.2795 O   0  0  0  0  0  0  0  0  0  0  0  0
   -0.0222    2.2000   -0.4625 N   0  0  0  0  0  0  0  0  0  0  0  0
   -0.2609    1.0086    0.1905 N   0  0  0  0  0  0  0  0  0  0  0  0
   -1.5228    0.7928    0.8664 C   0  0  0  0  0  0  0  0  0  0  0  0
   -1.9489   -0.6166    0.6483 C   0  0  0  0  0  0  0  0  0  0  0  0
   -3.1354   -0.9164    0.9613 O   0  0  0  0  0  0  0  0  0  0  0  0
   -1.0896   -1.5975    0.1175 N   0  0  0  0  0  0  0  0  0  0  0  0
    0.1594   -1.2426   -0.5198 C   0  0  0  0  0  0  0  0  0  0  0  0
    0.7265   -0.0409    0.2176 C   0  0  1  0  0  0  0  0  0  0  0  0
    1.9818    0.3661   -0.4483 C   0  0  0  0  0  0  0  0  0  0  0  0
    2.0397    1.5220   -0.9365 O   0  0  0  0  0  0  0  0  0  0  0  0
    3.0767   -0.4765   -0.5473 O   0  0  0  0  0  0  0  0  0  0  0  0
   -1.3628    0.9213    1.9597 H   0  0  0  0  0  0  0  0  0  0  0  0
   -2.2977    1.5055    0.5468 H   0  0  0  0  0  0  0  0  0  0  0  0
   -1.3537   -2.6027    0.1821 H   0  0  0  0  0  0  0  0  0  0  0  0
    0.8923   -2.0917   -0.4970 H   0  0  0  0  0  0  0  0  0  0  0  0
   -0.0008   -0.9345   -1.5685 H   0  0  0  0  0  0  0  0  0  0  0  0
    0.9281   -0.3529    1.2546 H   0  0  0  0  0  0  0  0  0  0  0  0
    4.0274   -0.1216   -0.6853 H   0  0  0  0  0  0  0  0  0  0  0  0
  1  2  2  0
  2  3  1  0
  3  4  1  0
  4  5  1  0
  5  6  2  0
  5  7  1  0
  7  8  1  0
  8  9  1  0
  9 10  1  0
 10 11  2  0
 10 12  1  0
  9  3  1  0
  4 13  1  0
  4 14  1  0
  7 15  1  0
  8 16  1  0
  8 17  1  0
  9 18  1  1
 12 19  1  0
M  END
$$$$

     RDKit          3D

 19 19  0  0  0  0  0  0  0  0999 V2000
   -0.1767    3.1635   -0.5720 O   0  0  0  0  0  0  0  0  0  0  0  0
    0.3343    2.0268   -0.6652 N   0  0  0  0  0  0  0  0  0  0  0  0
   -0.1698    0.9209    0.0586 N   0  0  0  0  0  0  0  0  0  0  0  0
   -1.5889    0.8631    0.2507 C   0  0  0  0  0  0  0  0  0  0  0  0
   -2.0758   -0.5285    0.2348 C   0  0  0  0  0  0  0  0  0  0  0  0
   -3.3139   -0.7235    0.2380 O   0  0  0  0  0  0  0  0  0  0  0  0
   -1.1791   -1.6127    0.2164 N   0  0  0  0  0  0  0  0  0  0  0  0
    0.2492   -1.4986    0.2137 C   0  0  0  0  0  0  0  0  0  0  0  0
    0.7034   -0.0964    0.5762 C   0  0  1  0  0  0  0  0  0  0  0  0
    2.0784    0.0610    0.0346 C   0  0  0  0  0  0  0  0  0  0  0  0
    2.9420   -0.7779    0.4177 O   0  0  0  0  0  0  0  0  0  0  0  0
    2.4645    1.0411   -0.8392 O   0  0  0  0  0  0  0  0  0  0  0  0
   -2.1186    1.4344   -0.5289 H   0  0  0  0  0  0  0  0  0  0  0  0
   -1.9083    1.3048    1.2258 H   0  0  0  0  0  0  0  0  0  0  0  0
   -1.5828   -2.5870    0.2036 H   0  0  0  0  0  0  0  0  0  0  0  0
    0.6056   -1.7241   -0.8098 H   0  0  0  0  0  0  0  0  0  0  0  0
    0.6856   -2.2018    0.9623 H   0  0  0  0  0  0  0  0  0  0  0  0
    0.8064   -0.0147    1.6973 H   0  0  0  0  0  0  0  0  0  0  0  0
    3.2445    0.9497   -1.4907 H   0  0  0  0  0  0  0  0  0  0  0  0
  1  2  2  0
  2  3  1  0
  3  4  1  0
  4  5  1  0
  5  6  2  0
  5  7  1  0
  7  8  1  0
  8  9  1  0
  9 10  1  0
 10 11  2  0
 10 12  1  0
  9  3  1  0
  4 13  1  0
  4 14  1  0
  7 15  1  0
  8 16  1  0
  8 17  1  0
  9 18  1  1
 12 19  1  0
M  END
$$$$
