
     RDKit          3D

 24 24  0  0  0  0  0  0  0  0999 V2000
    3.2918   -0.2738    1.8300 N   0  0  0  0  0  0  0  0  0  0  0  0
    2.6844   -0.1930    0.7104 C   0  0  0  0  0  0  0  0  0  0  0  0
    3.4197   -0.3387   -0.4869 N   0  0  0  0  0  0  0  0  0  0  0  0
    1.3026    0.0378    0.6726 N   0  0  0  0  0  0  0  0  0  0  0  0
    0.5021    1.2219    0.3218 C   0  0  0  0  0  0  0  0  0  0  0  0
   -0.5538    0.2582   -0.1785 C   0  0  0  0  0  0  0  0  0  0  0  0
   -0.2904   -0.1313   -1.4636 O   0  0  0  0  0  0  0  0  0  0  0  0
   -1.9567    0.7334    0.1080 C   0  0  0  0  0  0  0  0  0  0  0  0
   -2.1157    0.8729    1.4735 F   0  0  0  0  0  0  0  0  0  0  0  0
   -2.1258    1.9508   -0.5476 F   0  0  0  0  0  0  0  0  0  0  0  0
   -3.0096   -0.2000   -0.3868 C   0  0  0  0  0  0  0  0  0  0  0  0
   -2.9672   -0.4055   -1.7579 O   0  0  0  0  0  0  0  0  0  0  0  0
    0.0367   -0.6326    0.9140 C   0  0  0  0  0  0  0  0  0  0  0  0
    4.3158   -0.4452    1.8416 H   0  0  0  0  0  0  0  0  0  0  0  0
    3.2532    0.3104   -1.2950 H   0  0  0  0  0  0  0  0  0  0  0  0
    4.1452   -1.0704   -0.6380 H   0  0  0  0  0  0  0  0  0  0  0  0
    0.9795    1.8406   -0.4607 H   0  0  0  0  0  0  0  0  0  0  0  0
    0.2437    1.7491    1.2531 H   0  0  0  0  0  0  0  0  0  0  0  0
   -0.4921   -1.0950   -1.6156 H   0  0  0  0  0  0  0  0  0  0  0  0
   -2.9457   -1.1526    0.1844 H   0  0  0  0  0  0  0  0  0  0  0  0
   -3.9964    0.2470   -0.1470 H   0  0  0  0  0  0  0  0  0  0  0  0
   -3.3585   -1.2759   -2.0165 H   0  0  0  0  0  0  0  0  0  0  0  0
   -0.3825   -0.3055    1.8842 H   0  0  0  0  0  0  0  0  0  0  0  0
    0.0197   -1.7027    0.6932 H   0  0  0  0  0  0  0  0  0  0  0  0
  1  2  2  3
  2  3  1  0
  2  4  1  0
  4  5  1  0
  5  6  1  0
  6  7  1  0
  6  8  1  0
  8  9  1  0
  8 10  1  0
  8 11  1  0
 11 12  1  0
  6 13  1  0
 13  4  1  0
  1 14  1  0
  3 15  1  0
  3 16  1  0
  5 17  1  0
  5 18  1  0
  7 19  1  0
 11 20  1  0
 11 21  1  0
 12 22  1  0
 13 23  1  0
 13 24  1  0
M  END
$$$$

     RDKit          3D

 24 24  0  0  0  0  0  0  0  0999 V2000
    3.3420   -1.4378   -0.4837 N   0  0  0  0  0  0  0  0  0  0  0  0
    2.6327   -0.3365   -0.4240 C   0  0  0  0  0  0  0  0  0  0  0  0
    3.4484    0.8524   -0.5042 N   0  0  0  0  0  0  0  0  0  0  0  0
    1.2467   -0.3208   -0.2973 N   0  0  0  0  0  0  0  0  0  0  0  0
    0.2356   -1.0130    0.4502 C   0  0  0  0  0  0  0  0  0  0  0  0
   -0.3920    0.3641    0.5700 C   0  0  0  0  0  0  0  0  0  0  0  0
    0.3227    1.1152    1.4653 O   0  0  0  0  0  0  0  0  0  0  0  0
   -1.8728    0.4109    0.6494 C   0  0  0  0  0  0  0  0  0  0  0  0
   -2.2977   -0.2907    1.7465 F   0  0  0  0  0  0  0  0  0  0  0  0
   -2.2353    1.7390    0.8875 F   0  0  0  0  0  0  0  0  0  0  0  0
   -2.6036   -0.0176   -0.5766 C   0  0  0  0  0  0  0  0  0  0  0  0
   -3.9815    0.1003   -0.2875 O   0  0  0  0  0  0  0  0  0  0  0  0
    0.1517    0.4131   -0.8690 C   0  0  0  0  0  0  0  0  0  0  0  0
    2.8273   -2.3206   -0.4325 H   0  0  0  0  0  0  0  0  0  0  0  0
    3.8350    1.2946    0.3582 H   0  0  0  0  0  0  0  0  0  0  0  0
    3.6671    1.2917   -1.4203 H   0  0  0  0  0  0  0  0  0  0  0  0
    0.5540   -1.4552    1.4113 H   0  0  0  0  0  0  0  0  0  0  0  0
   -0.4044   -1.6884   -0.1441 H   0  0  0  0  0  0  0  0  0  0  0  0
    0.6593    0.5112    2.1857 H   0  0  0  0  0  0  0  0  0  0  0  0
   -2.4320   -1.0902   -0.7914 H   0  0  0  0  0  0  0  0  0  0  0  0
   -2.3998    0.6423   -1.4467 H   0  0  0  0  0  0  0  0  0  0  0  0
   -4.1193    0.0019    0.6855 H   0  0  0  0  0  0  0  0  0  0  0  0
   -0.5480   -0.1864   -1.4981 H   0  0  0  0  0  0  0  0  0  0  0  0
    0.3637    1.4203   -1.2343 H   0  0  0  0  0  0  0  0  0  0  0  0
  1  2  2  3
  2  3  1  0
  2  4  1  0
  4  5  1  0
  5  6  1  0
  6  7  1  0
  6  8  1  0
  8  9  1  0
  8 10  1  0
  8 11  1  0
 11 12  1  0
  6 13  1  0
 13  4  1  0
  1 14  1  0
  3 15  1  0
  3 16  1  0
  5 17  1  0
  5 18  1  0
  7 19  1  0
 11 20  1  0
 11 21  1  0
 12 22  1  0
 13 23  1  0
 13 24  1  0
M  END
$$$$

     RDKit          3D

 24 24  0  0  0  0  0  0  0  0999 V2000
    3.0306    0.8645   -1.2216 N   0  0  0  0  0  0  0  0  0  0  0  0
    2.3561    0.6739   -0.1349 C   0  0  0  0  0  0  0  0  0  0  0  0
    2.7884    1.4425    1.0032 N   0  0  0  0  0  0  0  0  0  0  0  0
    1.2767   -0.2180   -0.0620 N   0  0  0  0  0  0  0  0  0  0  0  0
    0.6145   -0.9391    1.0014 C   0  0  0  0  0  0  0  0  0  0  0  0
   -0.6397   -0.9235    0.1535 C   0  0  0  0  0  0  0  0  0  0  0  0
   -1.3895   -2.0668    0.2273 O   0  0  0  0  0  0  0  0  0  0  0  0
   -1.4368    0.3197    0.4307 C   0  0  0  0  0  0  0  0  0  0  0  0
   -0.6715    1.4231    0.1303 F   0  0  0  0  0  0  0  0  0  0  0  0
   -1.6799    0.3573    1.7910 F   0  0  0  0  0  0  0  0  0  0  0  0
   -2.7254    0.3621   -0.3617 C   0  0  0  0  0  0  0  0  0  0  0  0
   -2.4631    0.3313   -1.7140 O   0  0  0  0  0  0  0  0  0  0  0  0
    0.3410   -0.8230   -0.9842 C   0  0  0  0  0  0  0  0  0  0  0  0
    2.7513    0.3310   -2.0615 H   0  0  0  0  0  0  0  0  0  0  0  0
    3.5756    1.0638    1.6030 H   0  0  0  0  0  0  0  0  0  0  0  0
    2.3540    2.3467    1.2480 H   0  0  0  0  0  0  0  0  0  0  0  0
    1.0207   -1.9620    1.1733 H   0  0  0  0  0  0  0  0  0  0  0  0
    0.4804   -0.3551    1.9282 H   0  0  0  0  0  0  0  0  0  0  0  0
   -1.5449   -2.2544    1.2026 H   0  0  0  0  0  0  0  0  0  0  0  0
   -3.2129    1.3406   -0.0977 H   0  0  0  0  0  0  0  0  0  0  0  0
   -3.4180   -0.4470   -0.0858 H   0  0  0  0  0  0  0  0  0  0  0  0
   -2.1534    1.1817   -2.0854 H   0  0  0  0  0  0  0  0  0  0  0  0
    0.0323   -0.2050   -1.8363 H   0  0  0  0  0  0  0  0  0  0  0  0
    0.7132   -1.8444   -1.2474 H   0  0  0  0  0  0  0  0  0  0  0  0
  1  2  2  3
  2  3  1  0
  2  4  1  0
  4  5  1  0
  5  6  1  0
  6  7  1  0
  6  8  1  0
  8  9  1  0
  8 10  1  0
  8 11  1  0
 11 12  1  0
  6 13  1  0
 13  4  1  0
  1 14  1  0
  3 15  1  0
  3 16  1  0
  5 17  1  0
  5 18  1  0
  7 19  1  0
 11 20  1  0
 11 21  1  0
 12 22  1  0
 13 23  1  0
 13 24  1  0
M  END
$$$$

     RDKit          3D

 24 24  0  0  0  0  0  0  0  0999 V2000
    3.3237    0.0875   -1.4507 N   0  0  0  0  0  0  0  0  0  0  0  0
    2.6857    0.1599   -0.3092 C   0  0  0  0  0  0  0  0  0  0  0  0
    3.4178    0.3742    0.8827 N   0  0  0  0  0  0  0  0  0  0  0  0
    1.2721    0.0214   -0.2930 N   0  0  0  0  0  0  0  0  0  0  0  0
    0.4215   -1.1131   -0.5981 C   0  0  0  0  0  0  0  0  0  0  0  0
   -0.8032   -0.2498   -0.5112 C   0  0  0  0  0  0  0  0  0  0  0  0
   -1.3814    0.0054   -1.7438 O   0  0  0  0  0  0  0  0  0  0  0  0
   -1.7709   -0.7996    0.4965 C   0  0  0  0  0  0  0  0  0  0  0  0
   -2.1264   -2.0725    0.0915 F   0  0  0  0  0  0  0  0  0  0  0  0
   -1.2551   -0.8822    1.7551 F   0  0  0  0  0  0  0  0  0  0  0  0
   -3.0744    0.0092    0.5100 C   0  0  0  0  0  0  0  0  0  0  0  0
   -2.7665    1.3371    0.8417 O   0  0  0  0  0  0  0  0  0  0  0  0
    0.1093    0.8376   -0.0012 C   0  0  0  0  0  0  0  0  0  0  0  0
    4.3528    0.1834   -1.5036 H   0  0  0  0  0  0  0  0  0  0  0  0
    3.6834    1.3440    1.1551 H   0  0  0  0  0  0  0  0  0  0  0  0
    3.6860   -0.4350    1.4786 H   0  0  0  0  0  0  0  0  0  0  0  0
    0.5163   -1.8948    0.1824 H   0  0  0  0  0  0  0  0  0  0  0  0
    0.5845   -1.5082   -1.6194 H   0  0  0  0  0  0  0  0  0  0  0  0
   -1.0815    0.8695   -2.1028 H   0  0  0  0  0  0  0  0  0  0  0  0
   -3.6184   -0.0868   -0.4307 H   0  0  0  0  0  0  0  0  0  0  0  0
   -3.7250   -0.3615    1.3282 H   0  0  0  0  0  0  0  0  0  0  0  0
   -2.5936    1.3329    1.8275 H   0  0  0  0  0  0  0  0  0  0  0  0
    0.1080    1.7690   -0.6223 H   0  0  0  0  0  0  0  0  0  0  0  0
    0.0352    1.0723    1.0587 H   0  0  0  0  0  0  0  0  0  0  0  0
  1  2  2  3
  2  3  1  0
  2  4  1  0
  4  5  1  0
  5  6  1  0
  6  7  1  0
  6  8  1  0
  8  9  1  0
  8 10  1  0
  8 11  1  0
 11 12  1  0
  6 13  1  0
 13  4  1  0
  1 14  1  0
  3 15  1  0
  3 16  1  0
  5 17  1  0
  5 18  1  0
  7 19  1  0
 11 20  1  0
 11 21  1  0
 12 22  1  0
 13 23  1  0
 13 24  1  0
M  END
$$$$

     RDKit          3D

 24 24  0  0  0  0  0  0  0  0999 V2000
   -2.6348   -1.9653   -0.6615 N   0  0  0  0  0  0  0  0  0  0  0  0
   -2.5490   -0.6854   -0.6080 C   0  0  0  0  0  0  0  0  0  0  0  0
   -3.6086    0.1871   -0.9701 N   0  0  0  0  0  0  0  0  0  0  0  0
   -1.3369   -0.1166   -0.1656 N   0  0  0  0  0  0  0  0  0  0  0  0
   -0.2447    0.5621   -0.7881 C   0  0  0  0  0  0  0  0  0  0  0  0
    0.4996    0.5368    0.5045 C   0  0  0  0  0  0  0  0  0  0  0  0
    0.8276    1.7984    1.0132 O   0  0  0  0  0  0  0  0  0  0  0  0
    1.7053   -0.3946    0.4798 C   0  0  0  0  0  0  0  0  0  0  0  0
    2.3534   -0.3729    1.7191 F   0  0  0  0  0  0  0  0  0  0  0  0
    1.3510   -1.6778    0.1738 F   0  0  0  0  0  0  0  0  0  0  0  0
    2.6872    0.1994   -0.5098 C   0  0  0  0  0  0  0  0  0  0  0  0
    3.8396   -0.5852   -0.6086 O   0  0  0  0  0  0  0  0  0  0  0  0
   -0.7306   -0.0082    1.1382 C   0  0  0  0  0  0  0  0  0  0  0  0
   -1.8358   -2.5713   -0.3874 H   0  0  0  0  0  0  0  0  0  0  0  0
   -4.0904    0.6746   -0.1560 H   0  0  0  0  0  0  0  0  0  0  0  0
   -3.9112    0.3545   -1.9556 H   0  0  0  0  0  0  0  0  0  0  0  0
    0.1700   -0.0808   -1.6085 H   0  0  0  0  0  0  0  0  0  0  0  0
   -0.4647    1.5814   -1.1640 H   0  0  0  0  0  0  0  0  0  0  0  0
    0.4952    1.8392    1.9457 H   0  0  0  0  0  0  0  0  0  0  0  0
    2.1691    0.2483   -1.4881 H   0  0  0  0  0  0  0  0  0  0  0  0
    2.9219    1.2292   -0.1283 H   0  0  0  0  0  0  0  0  0  0  0  0
    4.2873   -0.5300    0.2788 H   0  0  0  0  0  0  0  0  0  0  0  0
   -0.6162   -0.9812    1.6620 H   0  0  0  0  0  0  0  0  0  0  0  0
   -1.2842    0.7584    1.7319 H   0  0  0  0  0  0  0  0  0  0  0  0
  1  2  2  3
  2  3  1  0
  2  4  1  0
  4  5  1  0
  5  6  1  0
  6  7  1  0
  6  8  1  0
  8  9  1  0
  8 10  1  0
  8 11  1  0
 11 12  1  0
  6 13  1  0
 13  4  1  0
  1 14  1  0
  3 15  1  0
  3 16  1  0
  5 17  1  0
  5 18  1  0
  7 19  1  0
 11 20  1  0
 11 21  1  0
 12 22  1  0
 13 23  1  0
 13 24  1  0
M  END
$$$$

     RDKit          3D

 24 24  0  0  0  0  0  0  0  0999 V2000
   -2.5132   -1.1269    1.0461 N   0  0  0  0  0  0  0  0  0  0  0  0
   -2.1680    0.0762    0.7378 C   0  0  0  0  0  0  0  0  0  0  0  0
   -2.9464    1.1600    1.2225 N   0  0  0  0  0  0  0  0  0  0  0  0
   -1.0290    0.3288   -0.0734 N   0  0  0  0  0  0  0  0  0  0  0  0
   -0.4589   -0.3103   -1.2703 C   0  0  0  0  0  0  0  0  0  0  0  0
    0.8261    0.4510   -1.0036 C   0  0  0  0  0  0  0  0  0  0  0  0
    1.2167    1.0901   -2.1915 O   0  0  0  0  0  0  0  0  0  0  0  0
    1.9107   -0.4155   -0.5064 C   0  0  0  0  0  0  0  0  0  0  0  0
    3.0455    0.3395   -0.2845 F   0  0  0  0  0  0  0  0  0  0  0  0
    2.2543   -1.2948   -1.5457 F   0  0  0  0  0  0  0  0  0  0  0  0
    1.5759   -1.2371    0.7024 C   0  0  0  0  0  0  0  0  0  0  0  0
    1.2252   -0.4314    1.7823 O   0  0  0  0  0  0  0  0  0  0  0  0
    0.0635    1.3139   -0.0837 C   0  0  0  0  0  0  0  0  0  0  0  0
   -2.0181   -1.9743    0.7465 H   0  0  0  0  0  0  0  0  0  0  0  0
   -3.9790    1.2398    1.0934 H   0  0  0  0  0  0  0  0  0  0  0  0
   -2.4978    1.9522    1.7488 H   0  0  0  0  0  0  0  0  0  0  0  0
   -1.0246    0.0029   -2.1578 H   0  0  0  0  0  0  0  0  0  0  0  0
   -0.3520   -1.4175   -1.1674 H   0  0  0  0  0  0  0  0  0  0  0  0
    1.2796    0.3885   -2.8981 H   0  0  0  0  0  0  0  0  0  0  0  0
    2.5275   -1.7582    1.0202 H   0  0  0  0  0  0  0  0  0  0  0  0
    0.8567   -2.0398    0.5065 H   0  0  0  0  0  0  0  0  0  0  0  0
    2.0149   -0.1757    2.2991 H   0  0  0  0  0  0  0  0  0  0  0  0
   -0.2716    2.2561   -0.6098 H   0  0  0  0  0  0  0  0  0  0  0  0
    0.4621    1.5824    0.8868 H   0  0  0  0  0  0  0  0  0  0  0  0
  1  2  2  3
  2  3  1  0
  2  4  1  0
  4  5  1  0
  5  6  1  0
  6  7  1  0
  6  8  1  0
  8  9  1  0
  8 10  1  0
  8 11  1  0
 11 12  1  0
  6 13  1  0
 13  4  1  0
  1 14  1  0
  3 15  1  0
  3 16  1  0
  5 17  1  0
  5 18  1  0
  7 19  1  0
 11 20  1  0
 11 21  1  0
 12 22  1  0
 13 23  1  0
 13 24  1  0
M  END
$$$$

     RDKit          3D

 24 24  0  0  0  0  0  0  0  0999 V2000
   -3.2158   -1.7707   -0.5149 N   0  0  0  0  0  0  0  0  0  0  0  0
   -2.7696   -0.5767   -0.3297 C   0  0  0  0  0  0  0  0  0  0  0  0
   -3.7432    0.4794   -0.3055 N   0  0  0  0  0  0  0  0  0  0  0  0
   -1.3932   -0.3173   -0.1589 N   0  0  0  0  0  0  0  0  0  0  0  0
   -0.2535   -0.8262    0.5735 C   0  0  0  0  0  0  0  0  0  0  0  0
    0.4758    0.4589    0.4144 C   0  0  0  0  0  0  0  0  0  0  0  0
    0.2783    1.4269    1.3809 O   0  0  0  0  0  0  0  0  0  0  0  0
    1.8972    0.3711   -0.0723 C   0  0  0  0  0  0  0  0  0  0  0  0
    1.9102   -0.2254   -1.2994 F   0  0  0  0  0  0  0  0  0  0  0  0
    2.4204    1.6350   -0.1878 F   0  0  0  0  0  0  0  0  0  0  0  0
    2.7739   -0.4349    0.8538 C   0  0  0  0  0  0  0  0  0  0  0  0
    4.0582   -0.4475    0.3052 O   0  0  0  0  0  0  0  0  0  0  0  0
   -0.5121    0.6871   -0.7340 C   0  0  0  0  0  0  0  0  0  0  0  0
   -2.5205   -2.5475   -0.5349 H   0  0  0  0  0  0  0  0  0  0  0  0
   -3.5185    1.3399    0.2237 H   0  0  0  0  0  0  0  0  0  0  0  0
   -4.6469    0.4177   -0.7876 H   0  0  0  0  0  0  0  0  0  0  0  0
   -0.4928   -1.0863    1.6267 H   0  0  0  0  0  0  0  0  0  0  0  0
    0.2575   -1.6929    0.1005 H   0  0  0  0  0  0  0  0  0  0  0  0
    0.2086    2.3093    0.9054 H   0  0  0  0  0  0  0  0  0  0  0  0
    2.8408   -0.0344    1.8628 H   0  0  0  0  0  0  0  0  0  0  0  0
    2.4468   -1.5117    0.8671 H   0  0  0  0  0  0  0  0  0  0  0  0
    4.6193    0.2898    0.6602 H   0  0  0  0  0  0  0  0  0  0  0  0
   -0.1242    0.3842   -1.7242 H   0  0  0  0  0  0  0  0  0  0  0  0
   -0.9965    1.6721   -0.7318 H   0  0  0  0  0  0  0  0  0  0  0  0
  1  2  2  3
  2  3  1  0
  2  4  1  0
  4  5  1  0
  5  6  1  0
  6  7  1  0
  6  8  1  0
  8  9  1  0
  8 10  1  0
  8 11  1  0
 11 12  1  0
  6 13  1  0
 13  4  1  0
  1 14  1  0
  3 15  1  0
  3 16  1  0
  5 17  1  0
  5 18  1  0
  7 19  1  0
 11 20  1  0
 11 21  1  0
 12 22  1  0
 13 23  1  0
 13 24  1  0
M  END
$$$$

     RDKit          3D

 24 24  0  0  0  0  0  0  0  0999 V2000
    3.7183   -0.4342   -0.1218 N   0  0  0  0  0  0  0  0  0  0  0  0
    2.7526    0.3893   -0.1460 C   0  0  0  0  0  0  0  0  0  0  0  0
    3.0032    1.7698   -0.0324 N   0  0  0  0  0  0  0  0  0  0  0  0
    1.4338   -0.0740   -0.2861 N   0  0  0  0  0  0  0  0  0  0  0  0
    0.6133   -0.6301   -1.3453 C   0  0  0  0  0  0  0  0  0  0  0  0
   -0.5513   -0.7239   -0.4338 C   0  0  0  0  0  0  0  0  0  0  0  0
   -0.9777   -2.0244   -0.2290 O   0  0  0  0  0  0  0  0  0  0  0  0
   -1.7033    0.2113   -0.6898 C   0  0  0  0  0  0  0  0  0  0  0  0
   -2.2568    0.0360   -1.9478 F   0  0  0  0  0  0  0  0  0  0  0  0
   -1.3418    1.5409   -0.5837 F   0  0  0  0  0  0  0  0  0  0  0  0
   -2.8154   -0.0327    0.3089 C   0  0  0  0  0  0  0  0  0  0  0  0
   -3.8589    0.8709    0.0156 O   0  0  0  0  0  0  0  0  0  0  0  0
    0.3295   -0.1688    0.6606 C   0  0  0  0  0  0  0  0  0  0  0  0
    3.5261   -1.4528   -0.2063 H   0  0  0  0  0  0  0  0  0  0  0  0
    3.0182    2.2260    0.9230 H   0  0  0  0  0  0  0  0  0  0  0  0
    3.1700    2.3198   -0.8942 H   0  0  0  0  0  0  0  0  0  0  0  0
    0.5617    0.0551   -2.1979 H   0  0  0  0  0  0  0  0  0  0  0  0
    1.0628   -1.6106   -1.6688 H   0  0  0  0  0  0  0  0  0  0  0  0
   -0.4629   -2.6809   -0.7718 H   0  0  0  0  0  0  0  0  0  0  0  0
   -2.4823    0.0511    1.3550 H   0  0  0  0  0  0  0  0  0  0  0  0
   -3.2441   -1.0522    0.1400 H   0  0  0  0  0  0  0  0  0  0  0  0
   -4.0548    1.4479    0.7949 H   0  0  0  0  0  0  0  0  0  0  0  0
    0.0723    0.8650    0.9936 H   0  0  0  0  0  0  0  0  0  0  0  0
    0.4876   -0.8983    1.4511 H   0  0  0  0  0  0  0  0  0  0  0  0
  1  2  2  3
  2  3  1  0
  2  4  1  0
  4  5  1  0
  5  6  1  0
  6  7  1  0
  6  8  1  0
  8  9  1  0
  8 10  1  0
  8 11  1  0
 11 12  1  0
  6 13  1  0
 13  4  1  0
  1 14  1  0
  3 15  1  0
  3 16  1  0
  5 17  1  0
  5 18  1  0
  7 19  1  0
 11 20  1  0
 11 21  1  0
 12 22  1  0
 13 23  1  0
 13 24  1  0
M  END
$$$$
