
     RDKit          3D

 26 25  0  0  0  0  0  0  0  0999 V2000
   -4.0031   -0.2304   -0.2073 C   0  0  0  0  0  0  0  0  0  0  0  0
   -3.0722   -0.8719    0.6586 N   0  0  0  0  0  0  0  0  0  0  0  0
   -1.7776   -0.2675    0.5195 C   0  0  0  0  0  0  0  0  0  0  0  0
   -0.7574   -0.9428    1.3934 C   0  0  0  0  0  0  0  0  0  0  0  0
    0.5302   -0.3347    1.2233 N   0  0  0  0  0  0  0  0  0  0  0  0
    1.0118   -0.5974   -0.1066 C   0  0  0  0  0  0  0  0  0  0  0  0
    2.4820   -0.2948   -0.1585 C   0  0  2  0  0  0  0  0  0  0  0  0
    2.7240    1.0305    0.1722 O   0  0  0  0  0  0  0  0  0  0  0  0
    3.0654   -0.6132   -1.5449 C   0  0  0  0  0  0  0  0  0  0  0  0
    4.4202   -0.4080   -1.4707 O   0  0  0  0  0  0  0  0  0  0  0  0
   -4.3385    0.7761    0.1620 H   0  0  0  0  0  0  0  0  0  0  0  0
   -4.9329   -0.8477   -0.3722 H   0  0  0  0  0  0  0  0  0  0  0  0
   -3.5205   -0.0240   -1.1826 H   0  0  0  0  0  0  0  0  0  0  0  0
   -3.3800   -1.1314    1.5872 H   0  0  0  0  0  0  0  0  0  0  0  0
   -1.4670   -0.4356   -0.5317 H   0  0  0  0  0  0  0  0  0  0  0  0
   -1.8261    0.8024    0.7209 H   0  0  0  0  0  0  0  0  0  0  0  0
   -0.7236   -2.0281    1.1484 H   0  0  0  0  0  0  0  0  0  0  0  0
   -1.0406   -0.8792    2.4734 H   0  0  0  0  0  0  0  0  0  0  0  0
    0.3968    0.7155    1.3055 H   0  0  0  0  0  0  0  0  0  0  0  0
    0.5069    0.0976   -0.8555 H   0  0  0  0  0  0  0  0  0  0  0  0
    0.7679   -1.6312   -0.4592 H   0  0  0  0  0  0  0  0  0  0  0  0
    2.9989   -0.9241    0.6132 H   0  0  0  0  0  0  0  0  0  0  0  0
    1.9477    1.5662    0.4044 H   0  0  0  0  0  0  0  0  0  0  0  0
    2.5528    0.0818   -2.2353 H   0  0  0  0  0  0  0  0  0  0  0  0
    2.7738   -1.6484   -1.7932 H   0  0  0  0  0  0  0  0  0  0  0  0
    4.6613    0.5253   -1.4642 H   0  0  0  0  0  0  0  0  0  0  0  0
  1  2  1  0
  2  3  1  0
  3  4  1  0
  4  5  1  0
  5  6  1  0
  6  7  1  0
  7  8  1  0
  7  9  1  0
  9 10  1  0
  1 11  1  0
  1 12  1  0
  1 13  1  0
  2 14  1  0
  3 15  1  0
  3 16  1  0
  4 17  1  0
  4 18  1  0
  5 19  1  0
  6 20  1  0
  6 21  1  0
  7 22  1  1
  8 23  1  0
  9 24  1  0
  9 25  1  0
 10 26  1  0
M  END
$$$$

     RDKit          3D

 26 25  0  0  0  0  0  0  0  0999 V2000
   -4.1022   -0.4146    0.1280 C   0  0  0  0  0  0  0  0  0  0  0  0
   -3.0556    0.1573   -0.6433 N   0  0  0  0  0  0  0  0  0  0  0  0
   -1.7154   -0.2942   -0.3187 C   0  0  0  0  0  0  0  0  0  0  0  0
   -0.7871    0.5002   -1.1911 C   0  0  0  0  0  0  0  0  0  0  0  0
    0.5937    0.1670   -0.9851 N   0  0  0  0  0  0  0  0  0  0  0  0
    1.0247    0.5945    0.2948 C   0  0  0  0  0  0  0  0  0  0  0  0
    2.5199    0.5201    0.4984 C   0  0  2  0  0  0  0  0  0  0  0  0
    3.1422    1.3607   -0.4758 O   0  0  0  0  0  0  0  0  0  0  0  0
    3.1526   -0.8034    0.3694 C   0  0  0  0  0  0  0  0  0  0  0  0
    2.7743   -1.7856    1.2510 O   0  0  0  0  0  0  0  0  0  0  0  0
   -3.9575   -0.4087    1.2179 H   0  0  0  0  0  0  0  0  0  0  0  0
   -5.0227    0.2028   -0.0990 H   0  0  0  0  0  0  0  0  0  0  0  0
   -4.3018   -1.4572   -0.2423 H   0  0  0  0  0  0  0  0  0  0  0  0
   -3.1069    1.1837   -0.8071 H   0  0  0  0  0  0  0  0  0  0  0  0
   -1.6524   -1.3777   -0.4983 H   0  0  0  0  0  0  0  0  0  0  0  0
   -1.4847   -0.1202    0.7698 H   0  0  0  0  0  0  0  0  0  0  0  0
   -0.8600    1.6035   -0.9445 H   0  0  0  0  0  0  0  0  0  0  0  0
   -1.0869    0.4516   -2.2600 H   0  0  0  0  0  0  0  0  0  0  0  0
    0.6326   -0.8988   -0.9792 H   0  0  0  0  0  0  0  0  0  0  0  0
    0.7425    1.6399    0.4872 H   0  0  0  0  0  0  0  0  0  0  0  0
    0.5137   -0.0173    1.0802 H   0  0  0  0  0  0  0  0  0  0  0  0
    2.7469    0.9888    1.4743 H   0  0  0  0  0  0  0  0  0  0  0  0
    2.5105    2.1128   -0.6846 H   0  0  0  0  0  0  0  0  0  0  0  0
    2.9972   -1.2380   -0.6634 H   0  0  0  0  0  0  0  0  0  0  0  0
    4.2742   -0.6978    0.4195 H   0  0  0  0  0  0  0  0  0  0  0  0
    3.5082   -1.9691    1.9283 H   0  0  0  0  0  0  0  0  0  0  0  0
  1  2  1  0
  2  3  1  0
  3  4  1  0
  4  5  1  0
  5  6  1  0
  6  7  1  0
  7  8  1  0
  7  9  1  0
  9 10  1  0
  1 11  1  0
  1 12  1  0
  1 13  1  0
  2 14  1  0
  3 15  1  0
  3 16  1  0
  4 17  1  0
  4 18  1  0
  5 19  1  0
  6 20  1  0
  6 21  1  0
  7 22  1  1
  8 23  1  0
  9 24  1  0
  9 25  1  0
 10 26  1  0
M  END
$$$$

     RDKit          3D

 26 25  0  0  0  0  0  0  0  0999 V2000
    4.1019   -0.6316    0.2681 C   0  0  0  0  0  0  0  0  0  0  0  0
    2.8589    0.1166    0.3221 N   0  0  0  0  0  0  0  0  0  0  0  0
    2.3049    0.2654   -0.9842 C   0  0  0  0  0  0  0  0  0  0  0  0
    0.9835    0.9819   -1.0268 C   0  0  0  0  0  0  0  0  0  0  0  0
    0.0073    0.2801   -0.2243 N   0  0  0  0  0  0  0  0  0  0  0  0
   -1.3470    0.6765   -0.4430 C   0  0  0  0  0  0  0  0  0  0  0  0
   -2.2164   -0.1049    0.5460 C   0  0  2  0  0  0  0  0  0  0  0  0
   -1.9681   -1.4814    0.3746 O   0  0  0  0  0  0  0  0  0  0  0  0
   -3.6765    0.0832    0.1241 C   0  0  0  0  0  0  0  0  0  0  0  0
   -3.7190   -0.3181   -1.2341 O   0  0  0  0  0  0  0  0  0  0  0  0
    3.8303   -1.6513    0.6788 H   0  0  0  0  0  0  0  0  0  0  0  0
    4.9273   -0.1878    0.8406 H   0  0  0  0  0  0  0  0  0  0  0  0
    4.4348   -0.7845   -0.7798 H   0  0  0  0  0  0  0  0  0  0  0  0
    2.8965    0.9732    0.9104 H   0  0  0  0  0  0  0  0  0  0  0  0
    2.1532   -0.7968   -1.3668 H   0  0  0  0  0  0  0  0  0  0  0  0
    2.9649    0.7805   -1.7176 H   0  0  0  0  0  0  0  0  0  0  0  0
    0.6309    1.0411   -2.0619 H   0  0  0  0  0  0  0  0  0  0  0  0
    1.1332    1.9898   -0.5496 H   0  0  0  0  0  0  0  0  0  0  0  0
    0.1194   -0.7433   -0.3107 H   0  0  0  0  0  0  0  0  0  0  0  0
   -1.6633    0.3928   -1.4842 H   0  0  0  0  0  0  0  0  0  0  0  0
   -1.4729    1.7604   -0.3154 H   0  0  0  0  0  0  0  0  0  0  0  0
   -2.0960    0.1629    1.5745 H   0  0  0  0  0  0  0  0  0  0  0  0
   -2.7982   -2.0200    0.4033 H   0  0  0  0  0  0  0  0  0  0  0  0
   -4.0223    1.1021    0.2516 H   0  0  0  0  0  0  0  0  0  0  0  0
   -4.2326   -0.6919    0.7050 H   0  0  0  0  0  0  0  0  0  0  0  0
   -4.1348   -1.1949   -1.3372 H   0  0  0  0  0  0  0  0  0  0  0  0
  1  2  1  0
  2  3  1  0
  3  4  1  0
  4  5  1  0
  5  6  1  0
  6  7  1  0
  7  8  1  0
  7  9  1  0
  9 10  1  0
  1 11  1  0
  1 12  1  0
  1 13  1  0
  2 14  1  0
  3 15  1  0
  3 16  1  0
  4 17  1  0
  4 18  1  0
  5 19  1  0
  6 20  1  0
  6 21  1  0
  7 22  1  1
  8 23  1  0
  9 24  1  0
  9 25  1  0
 10 26  1  0
M  END
$$$$

     RDKit          3D

 26 25  0  0  0  0  0  0  0  0999 V2000
   -4.2815   -0.1377   -0.8237 C   0  0  0  0  0  0  0  0  0  0  0  0
   -2.9649    0.3818   -0.6371 N   0  0  0  0  0  0  0  0  0  0  0  0
   -2.0809   -0.4827    0.1237 C   0  0  0  0  0  0  0  0  0  0  0  0
   -0.7320    0.1937    0.2076 C   0  0  0  0  0  0  0  0  0  0  0  0
    0.1994   -0.6014    0.9387 N   0  0  0  0  0  0  0  0  0  0  0  0
    1.4861    0.0231    0.9963 C   0  0  0  0  0  0  0  0  0  0  0  0
    2.1828    0.0653   -0.3440 C   0  0  2  0  0  0  0  0  0  0  0  0
    2.3489   -1.2640   -0.7632 O   0  0  0  0  0  0  0  0  0  0  0  0
    3.5195    0.7393   -0.2609 C   0  0  0  0  0  0  0  0  0  0  0  0
    4.2860    0.0442    0.7040 O   0  0  0  0  0  0  0  0  0  0  0  0
   -5.0328    0.2982   -0.1282 H   0  0  0  0  0  0  0  0  0  0  0  0
   -4.6082    0.0994   -1.8751 H   0  0  0  0  0  0  0  0  0  0  0  0
   -4.3268   -1.2363   -0.7002 H   0  0  0  0  0  0  0  0  0  0  0  0
   -2.9408    1.3739   -0.3203 H   0  0  0  0  0  0  0  0  0  0  0  0
   -1.9845   -1.4195   -0.4853 H   0  0  0  0  0  0  0  0  0  0  0  0
   -2.4919   -0.7317    1.1053 H   0  0  0  0  0  0  0  0  0  0  0  0
   -0.8145    1.1893    0.6978 H   0  0  0  0  0  0  0  0  0  0  0  0
   -0.3996    0.4223   -0.8306 H   0  0  0  0  0  0  0  0  0  0  0  0
    0.1909   -1.6091    0.7552 H   0  0  0  0  0  0  0  0  0  0  0  0
    1.3751    1.0477    1.3614 H   0  0  0  0  0  0  0  0  0  0  0  0
    2.1348   -0.5392    1.6968 H   0  0  0  0  0  0  0  0  0  0  0  0
    1.5767    0.5797   -1.0836 H   0  0  0  0  0  0  0  0  0  0  0  0
    1.4842   -1.5323   -1.1841 H   0  0  0  0  0  0  0  0  0  0  0  0
    3.4208    1.8026    0.0167 H   0  0  0  0  0  0  0  0  0  0  0  0
    4.0186    0.6207   -1.2681 H   0  0  0  0  0  0  0  0  0  0  0  0
    4.4346    0.6727    1.4582 H   0  0  0  0  0  0  0  0  0  0  0  0
  1  2  1  0
  2  3  1  0
  3  4  1  0
  4  5  1  0
  5  6  1  0
  6  7  1  0
  7  8  1  0
  7  9  1  0
  9 10  1  0
  1 11  1  0
  1 12  1  0
  1 13  1  0
  2 14  1  0
  3 15  1  0
  3 16  1  0
  4 17  1  0
  4 18  1  0
  5 19  1  0
  6 20  1  0
  6 21  1  0
  7 22  1  6
  8 23  1  0
  9 24  1  0
  9 25  1  0
 10 26  1  0
M  END
$$$$

     RDKit          3D

 26 25  0  0  0  0  0  0  0  0999 V2000
    4.1095    0.6178    0.4355 C   0  0  0  0  0  0  0  0  0  0  0  0
    2.6923    0.6171    0.2430 N   0  0  0  0  0  0  0  0  0  0  0  0
    2.1757   -0.5698   -0.4102 C   0  0  0  0  0  0  0  0  0  0  0  0
    0.6634   -0.3429   -0.5667 C   0  0  0  0  0  0  0  0  0  0  0  0
    0.0875   -0.2001    0.7135 N   0  0  0  0  0  0  0  0  0  0  0  0
   -1.2455    0.2515    0.7958 C   0  0  0  0  0  0  0  0  0  0  0  0
   -2.2150   -0.7354    0.2515 C   0  0  2  0  0  0  0  0  0  0  0  0
   -1.8937   -0.9345   -1.1078 O   0  0  0  0  0  0  0  0  0  0  0  0
   -3.6525   -0.2546    0.3619 C   0  0  0  0  0  0  0  0  0  0  0  0
   -3.8283    0.9522   -0.3166 O   0  0  0  0  0  0  0  0  0  0  0  0
    4.3389    0.9902    1.4529 H   0  0  0  0  0  0  0  0  0  0  0  0
    4.4860   -0.4049    0.3632 H   0  0  0  0  0  0  0  0  0  0  0  0
    4.5993    1.2243   -0.3680 H   0  0  0  0  0  0  0  0  0  0  0  0
    2.2918    1.5019   -0.1146 H   0  0  0  0  0  0  0  0  0  0  0  0
    2.3455   -1.4323    0.2711 H   0  0  0  0  0  0  0  0  0  0  0  0
    2.5964   -0.7005   -1.4149 H   0  0  0  0  0  0  0  0  0  0  0  0
    0.3112   -1.2918   -1.0905 H   0  0  0  0  0  0  0  0  0  0  0  0
    0.4690    0.4913   -1.2526 H   0  0  0  0  0  0  0  0  0  0  0  0
    0.6528   -0.3054    1.5409 H   0  0  0  0  0  0  0  0  0  0  0  0
   -1.4895    0.3745    1.9001 H   0  0  0  0  0  0  0  0  0  0  0  0
   -1.3513    1.2642    0.3251 H   0  0  0  0  0  0  0  0  0  0  0  0
   -2.1055   -1.7101    0.7412 H   0  0  0  0  0  0  0  0  0  0  0  0
   -2.1504   -0.0713   -1.5512 H   0  0  0  0  0  0  0  0  0  0  0  0
   -4.3432   -0.9851   -0.0935 H   0  0  0  0  0  0  0  0  0  0  0  0
   -3.9202   -0.0868    1.4208 H   0  0  0  0  0  0  0  0  0  0  0  0
   -3.6240    1.7403    0.2225 H   0  0  0  0  0  0  0  0  0  0  0  0
  1  2  1  0
  2  3  1  0
  3  4  1  0
  4  5  1  0
  5  6  1  0
  6  7  1  0
  7  8  1  0
  7  9  1  0
  9 10  1  0
  1 11  1  0
  1 12  1  0
  1 13  1  0
  2 14  1  0
  3 15  1  0
  3 16  1  0
  4 17  1  0
  4 18  1  0
  5 19  1  0
  6 20  1  0
  6 21  1  0
  7 22  1  1
  8 23  1  0
  9 24  1  0
  9 25  1  0
 10 26  1  0
M  END
$$$$

     RDKit          3D

 26 25  0  0  0  0  0  0  0  0999 V2000
   -3.9644    0.0355   -0.7242 C   0  0  0  0  0  0  0  0  0  0  0  0
   -3.1537   -0.3121    0.4074 N   0  0  0  0  0  0  0  0  0  0  0  0
   -1.7409   -0.5076    0.0956 C   0  0  0  0  0  0  0  0  0  0  0  0
   -1.0578    0.7794   -0.2735 C   0  0  0  0  0  0  0  0  0  0  0  0
    0.3203    0.5677   -0.5284 N   0  0  0  0  0  0  0  0  0  0  0  0
    1.0886    0.2377    0.6146 C   0  0  0  0  0  0  0  0  0  0  0  0
    2.5674    0.1658    0.4300 C   0  0  2  0  0  0  0  0  0  0  0  0
    3.1558    1.3577    0.0190 O   0  0  0  0  0  0  0  0  0  0  0  0
    2.8961   -0.9547   -0.5472 C   0  0  0  0  0  0  0  0  0  0  0  0
    4.2901   -1.1570   -0.5939 O   0  0  0  0  0  0  0  0  0  0  0  0
   -3.4730    0.7234   -1.4248 H   0  0  0  0  0  0  0  0  0  0  0  0
   -4.8482    0.5962   -0.3030 H   0  0  0  0  0  0  0  0  0  0  0  0
   -4.3337   -0.8902   -1.2740 H   0  0  0  0  0  0  0  0  0  0  0  0
   -3.4862   -1.1822    0.8366 H   0  0  0  0  0  0  0  0  0  0  0  0
   -1.6302   -1.2577   -0.7306 H   0  0  0  0  0  0  0  0  0  0  0  0
   -1.2765   -0.8998    1.0174 H   0  0  0  0  0  0  0  0  0  0  0  0
   -1.2496    1.5224    0.5473 H   0  0  0  0  0  0  0  0  0  0  0  0
   -1.5615    1.2400   -1.1614 H   0  0  0  0  0  0  0  0  0  0  0  0
    0.7607    1.2258   -1.1861 H   0  0  0  0  0  0  0  0  0  0  0  0
    0.7074   -0.7493    1.0188 H   0  0  0  0  0  0  0  0  0  0  0  0
    0.8500    0.9718    1.4401 H   0  0  0  0  0  0  0  0  0  0  0  0
    3.0447   -0.1060    1.4274 H   0  0  0  0  0  0  0  0  0  0  0  0
    2.4892    2.0862    0.0661 H   0  0  0  0  0  0  0  0  0  0  0  0
    2.4084   -1.8752   -0.2504 H   0  0  0  0  0  0  0  0  0  0  0  0
    2.5767   -0.6669   -1.5784 H   0  0  0  0  0  0  0  0  0  0  0  0
    4.6205   -0.9510    0.3024 H   0  0  0  0  0  0  0  0  0  0  0  0
  1  2  1  0
  2  3  1  0
  3  4  1  0
  4  5  1  0
  5  6  1  0
  6  7  1  0
  7  8  1  0
  7  9  1  0
  9 10  1  0
  1 11  1  0
  1 12  1  0
  1 13  1  0
  2 14  1  0
  3 15  1  0
  3 16  1  0
  4 17  1  0
  4 18  1  0
  5 19  1  0
  6 20  1  0
  6 21  1  0
  7 22  1  1
  8 23  1  0
  9 24  1  0
  9 25  1  0
 10 26  1  0
M  END
$$$$

     RDKit          3D

 26 25  0  0  0  0  0  0  0  0999 V2000
   -3.5450    0.4218    0.3540 C   0  0  0  0  0  0  0  0  0  0  0  0
   -2.6229   -0.6981    0.5250 N   0  0  0  0  0  0  0  0  0  0  0  0
   -1.8170   -0.8855   -0.6676 C   0  0  0  0  0  0  0  0  0  0  0  0
   -0.8880    0.2921   -0.8044 C   0  0  0  0  0  0  0  0  0  0  0  0
    0.0046    0.4141    0.3192 N   0  0  0  0  0  0  0  0  0  0  0  0
    1.0078   -0.6025    0.3928 C   0  0  0  0  0  0  0  0  0  0  0  0
    2.0410   -0.4989   -0.6927 C   0  0  2  0  0  0  0  0  0  0  0  0
    2.9486   -1.5793   -0.5289 O   0  0  0  0  0  0  0  0  0  0  0  0
    2.9066    0.7420   -0.5531 C   0  0  0  0  0  0  0  0  0  0  0  0
    2.2008    1.9048   -0.6671 O   0  0  0  0  0  0  0  0  0  0  0  0
   -3.4402    0.8690   -0.6604 H   0  0  0  0  0  0  0  0  0  0  0  0
   -3.3513    1.1421    1.1526 H   0  0  0  0  0  0  0  0  0  0  0  0
   -4.5764   -0.0146    0.3902 H   0  0  0  0  0  0  0  0  0  0  0  0
   -3.1268   -1.6094    0.6947 H   0  0  0  0  0  0  0  0  0  0  0  0
   -2.4527   -0.9427   -1.5739 H   0  0  0  0  0  0  0  0  0  0  0  0
   -1.2307   -1.8101   -0.5640 H   0  0  0  0  0  0  0  0  0  0  0  0
   -0.2850    0.2027   -1.7327 H   0  0  0  0  0  0  0  0  0  0  0  0
   -1.4331    1.2513   -0.8881 H   0  0  0  0  0  0  0  0  0  0  0  0
    0.3266    1.3448    0.5335 H   0  0  0  0  0  0  0  0  0  0  0  0
    0.5583   -1.6012    0.3876 H   0  0  0  0  0  0  0  0  0  0  0  0
    1.4976   -0.4952    1.3897 H   0  0  0  0  0  0  0  0  0  0  0  0
    1.6185   -0.5268   -1.6968 H   0  0  0  0  0  0  0  0  0  0  0  0
    3.7873   -1.3186   -1.0334 H   0  0  0  0  0  0  0  0  0  0  0  0
    3.6808    0.6508   -1.3710 H   0  0  0  0  0  0  0  0  0  0  0  0
    3.4670    0.6596    0.4107 H   0  0  0  0  0  0  0  0  0  0  0  0
    2.7237    2.6878   -0.3727 H   0  0  0  0  0  0  0  0  0  0  0  0
  1  2  1  0
  2  3  1  0
  3  4  1  0
  4  5  1  0
  5  6  1  0
  6  7  1  0
  7  8  1  0
  7  9  1  0
  9 10  1  0
  1 11  1  0
  1 12  1  0
  1 13  1  0
  2 14  1  0
  3 15  1  0
  3 16  1  0
  4 17  1  0
  4 18  1  0
  5 19  1  0
  6 20  1  0
  6 21  1  0
  7 22  1  6
  8 23  1  0
  9 24  1  0
  9 25  1  0
 10 26  1  0
M  END
$$$$

     RDKit          3D

 26 25  0  0  0  0  0  0  0  0999 V2000
   -4.2334   -0.1411    0.0685 C   0  0  0  0  0  0  0  0  0  0  0  0
   -2.8446   -0.2914    0.3702 N   0  0  0  0  0  0  0  0  0  0  0  0
   -2.0458    0.8600   -0.0269 C   0  0  0  0  0  0  0  0  0  0  0  0
   -0.5899    0.5951    0.3516 C   0  0  0  0  0  0  0  0  0  0  0  0
   -0.1021   -0.5770   -0.3156 N   0  0  0  0  0  0  0  0  0  0  0  0
    1.2491   -0.9268    0.0030 C   0  0  0  0  0  0  0  0  0  0  0  0
    2.2035    0.0881   -0.5443 C   0  0  2  0  0  0  0  0  0  0  0  0
    2.1371    0.2129   -1.9175 O   0  0  0  0  0  0  0  0  0  0  0  0
    3.6107   -0.2608   -0.0967 C   0  0  0  0  0  0  0  0  0  0  0  0
    4.5314    0.7106   -0.4736 O   0  0  0  0  0  0  0  0  0  0  0  0
   -4.4450    0.5744   -0.7342 H   0  0  0  0  0  0  0  0  0  0  0  0
   -4.6444   -1.1234   -0.2578 H   0  0  0  0  0  0  0  0  0  0  0  0
   -4.7577    0.2176    0.9842 H   0  0  0  0  0  0  0  0  0  0  0  0
   -2.7384   -0.4600    1.3968 H   0  0  0  0  0  0  0  0  0  0  0  0
   -2.4370    1.7182    0.5453 H   0  0  0  0  0  0  0  0  0  0  0  0
   -2.1919    1.0199   -1.0937 H   0  0  0  0  0  0  0  0  0  0  0  0
   -0.5375    0.4934    1.4370 H   0  0  0  0  0  0  0  0  0  0  0  0
    0.0059    1.4982    0.0801 H   0  0  0  0  0  0  0  0  0  0  0  0
   -0.7374   -1.3688   -0.1165 H   0  0  0  0  0  0  0  0  0  0  0  0
    1.4457   -1.9199   -0.4914 H   0  0  0  0  0  0  0  0  0  0  0  0
    1.3956   -1.0781    1.0992 H   0  0  0  0  0  0  0  0  0  0  0  0
    1.9783    1.0918   -0.1147 H   0  0  0  0  0  0  0  0  0  0  0  0
    1.9725   -0.6497   -2.3461 H   0  0  0  0  0  0  0  0  0  0  0  0
    3.9272   -1.2176   -0.5641 H   0  0  0  0  0  0  0  0  0  0  0  0
    3.6463   -0.3820    1.0030 H   0  0  0  0  0  0  0  0  0  0  0  0
    4.2018    1.3163   -1.1894 H   0  0  0  0  0  0  0  0  0  0  0  0
  1  2  1  0
  2  3  1  0
  3  4  1  0
  4  5  1  0
  5  6  1  0
  6  7  1  0
  7  8  1  0
  7  9  1  0
  9 10  1  0
  1 11  1  0
  1 12  1  0
  1 13  1  0
  2 14  1  0
  3 15  1  0
  3 16  1  0
  4 17  1  0
  4 18  1  0
  5 19  1  0
  6 20  1  0
  6 21  1  0
  7 22  1  1
  8 23  1  0
  9 24  1  0
  9 25  1  0
 10 26  1  0
M  END
$$$$
