
     RDKit          3D

 26 26  0  0  0  0  0  0  0  0999 V2000
   -2.2035   -1.6076    0.7696 C   0  0  0  0  0  0  0  0  0  0  0  0
   -2.2075   -0.2687    0.2044 N   0  0  0  0  0  0  0  0  0  0  0  0
   -3.2988    0.4960    0.0748 N   0  0  0  0  0  0  0  0  0  0  0  0
   -2.9133    1.6549   -0.4833 C   0  0  0  0  0  0  0  0  0  0  0  0
   -3.6916    2.6738   -0.7758 N   0  0  0  0  0  0  0  0  0  0  0  0
   -1.5903    1.5728   -0.6832 N   0  0  0  0  0  0  0  0  0  0  0  0
   -1.1425    0.3808   -0.2589 C   0  0  0  0  0  0  0  0  0  0  0  0
    0.0664    0.0117   -0.3175 N   0  0  0  0  0  0  0  0  0  0  0  0
    0.6801   -1.1937    0.0828 C   0  0  0  0  0  0  0  0  0  0  0  0
    2.1697   -0.9703    0.1853 C   0  0  0  0  0  0  0  0  0  0  0  0
    2.6762    0.2223   -0.0880 C   0  0  0  0  0  0  0  0  0  0  0  0
    4.1438    0.4558    0.0093 C   0  0  0  0  0  0  0  0  0  0  0  0
    4.5974    0.8482   -1.2409 O   0  0  0  0  0  0  0  0  0  0  0  0
   -1.6829   -2.3266    0.1101 H   0  0  0  0  0  0  0  0  0  0  0  0
   -3.2671   -1.9978    0.8222 H   0  0  0  0  0  0  0  0  0  0  0  0
   -1.8654   -1.6320    1.8210 H   0  0  0  0  0  0  0  0  0  0  0  0
   -4.2662    0.2222    0.3620 H   0  0  0  0  0  0  0  0  0  0  0  0
   -4.7146    2.6342   -0.5777 H   0  0  0  0  0  0  0  0  0  0  0  0
   -1.0141    2.3310   -1.1058 H   0  0  0  0  0  0  0  0  0  0  0  0
    0.3932   -1.6031    1.0580 H   0  0  0  0  0  0  0  0  0  0  0  0
    0.5550   -2.0321   -0.6632 H   0  0  0  0  0  0  0  0  0  0  0  0
    2.8439   -1.7726    0.4811 H   0  0  0  0  0  0  0  0  0  0  0  0
    2.0367    1.0434   -0.3850 H   0  0  0  0  0  0  0  0  0  0  0  0
    4.3856    1.2372    0.7569 H   0  0  0  0  0  0  0  0  0  0  0  0
    4.6484   -0.4754    0.3543 H   0  0  0  0  0  0  0  0  0  0  0  0
    4.6614    0.0958   -1.8642 H   0  0  0  0  0  0  0  0  0  0  0  0
  1  2  1  0
  2  3  1  0
  3  4  1  0
  4  5  2  3
  4  6  1  0
  6  7  1  0
  7  8  2  3
  8  9  1  0
  9 10  1  0
 10 11  2  0
 11 12  1  0
 12 13  1  0
  7  2  1  0
  1 14  1  0
  1 15  1  0
  1 16  1  0
  3 17  1  0
  5 18  1  0
  6 19  1  0
  9 20  1  0
  9 21  1  0
 10 22  1  0
 11 23  1  0
 12 24  1  0
 12 25  1  0
 13 26  1  0
M  END
$$$$

     RDKit          3D

 26 26  0  0  0  0  0  0  0  0999 V2000
   -2.5884   -1.7505   -1.1731 C   0  0  0  0  0  0  0  0  0  0  0  0
   -2.5439   -0.4602   -0.5100 N   0  0  0  0  0  0  0  0  0  0  0  0
   -3.5201    0.4183   -0.3427 N   0  0  0  0  0  0  0  0  0  0  0  0
   -3.0711    1.4961    0.3275 C   0  0  0  0  0  0  0  0  0  0  0  0
   -3.7110    2.5642    0.6854 N   0  0  0  0  0  0  0  0  0  0  0  0
   -1.7683    1.2442    0.5684 N   0  0  0  0  0  0  0  0  0  0  0  0
   -1.4162    0.0470    0.0642 C   0  0  0  0  0  0  0  0  0  0  0  0
   -0.2641   -0.5433    0.0919 N   0  0  0  0  0  0  0  0  0  0  0  0
    0.8239    0.1745    0.7610 C   0  0  0  0  0  0  0  0  0  0  0  0
    2.1250   -0.5119    0.5162 C   0  0  0  0  0  0  0  0  0  0  0  0
    3.1535    0.0611   -0.0842 C   0  0  0  0  0  0  0  0  0  0  0  0
    4.4581   -0.6257   -0.3302 C   0  0  0  0  0  0  0  0  0  0  0  0
    5.4836    0.0695    0.3127 O   0  0  0  0  0  0  0  0  0  0  0  0
   -3.6299   -2.0211   -1.4167 H   0  0  0  0  0  0  0  0  0  0  0  0
   -1.9777   -1.7327   -2.0957 H   0  0  0  0  0  0  0  0  0  0  0  0
   -2.2092   -2.5207   -0.4659 H   0  0  0  0  0  0  0  0  0  0  0  0
   -4.4995    0.3074   -0.6751 H   0  0  0  0  0  0  0  0  0  0  0  0
   -4.7332    2.6305    0.4302 H   0  0  0  0  0  0  0  0  0  0  0  0
   -1.1026    1.8844    1.0791 H   0  0  0  0  0  0  0  0  0  0  0  0
    0.6065    0.2218    1.8367 H   0  0  0  0  0  0  0  0  0  0  0  0
    0.8172    1.1994    0.3376 H   0  0  0  0  0  0  0  0  0  0  0  0
    2.2421   -1.5373    0.8456 H   0  0  0  0  0  0  0  0  0  0  0  0
    3.0380    1.0868   -0.4144 H   0  0  0  0  0  0  0  0  0  0  0  0
    4.4435   -1.6729    0.0099 H   0  0  0  0  0  0  0  0  0  0  0  0
    4.7149   -0.6464   -1.4175 H   0  0  0  0  0  0  0  0  0  0  0  0
    5.1288    0.6176    1.0593 H   0  0  0  0  0  0  0  0  0  0  0  0
  1  2  1  0
  2  3  1  0
  3  4  1  0
  4  5  2  3
  4  6  1  0
  6  7  1  0
  7  8  2  3
  8  9  1  0
  9 10  1  0
 10 11  2  0
 11 12  1  0
 12 13  1  0
  7  2  1  0
  1 14  1  0
  1 15  1  0
  1 16  1  0
  3 17  1  0
  5 18  1  0
  6 19  1  0
  9 20  1  0
  9 21  1  0
 10 22  1  0
 11 23  1  0
 12 24  1  0
 12 25  1  0
 13 26  1  0
M  END
$$$$

     RDKit          3D

 26 26  0  0  0  0  0  0  0  0999 V2000
   -3.6037    0.4937   -0.3273 C   0  0  0  0  0  0  0  0  0  0  0  0
   -2.5190   -0.2158    0.3542 N   0  0  0  0  0  0  0  0  0  0  0  0
   -2.5730   -0.8318    1.5214 N   0  0  0  0  0  0  0  0  0  0  0  0
   -1.3857   -1.3757    1.8367 C   0  0  0  0  0  0  0  0  0  0  0  0
   -1.0835   -2.0558    2.9160 N   0  0  0  0  0  0  0  0  0  0  0  0
   -0.5580   -1.0846    0.8207 N   0  0  0  0  0  0  0  0  0  0  0  0
   -1.2543   -0.3770   -0.0809 C   0  0  0  0  0  0  0  0  0  0  0  0
   -0.7647    0.0683   -1.1852 N   0  0  0  0  0  0  0  0  0  0  0  0
    0.5838   -0.1252   -1.6094 C   0  0  0  0  0  0  0  0  0  0  0  0
    1.5543    0.7976   -0.9559 C   0  0  0  0  0  0  0  0  0  0  0  0
    2.5706    0.3901   -0.2188 C   0  0  0  0  0  0  0  0  0  0  0  0
    3.5416    1.3235    0.4346 C   0  0  0  0  0  0  0  0  0  0  0  0
    4.8065    1.0122   -0.0828 O   0  0  0  0  0  0  0  0  0  0  0  0
   -4.5125   -0.1716   -0.3938 H   0  0  0  0  0  0  0  0  0  0  0  0
   -3.3472    0.7601   -1.3492 H   0  0  0  0  0  0  0  0  0  0  0  0
   -3.8485    1.4219    0.2272 H   0  0  0  0  0  0  0  0  0  0  0  0
   -3.4224   -0.8944    2.1287 H   0  0  0  0  0  0  0  0  0  0  0  0
   -1.8282   -2.2068    3.6260 H   0  0  0  0  0  0  0  0  0  0  0  0
    0.4354   -1.3849    0.7989 H   0  0  0  0  0  0  0  0  0  0  0  0
    0.6132    0.0899   -2.7160 H   0  0  0  0  0  0  0  0  0  0  0  0
    0.8725   -1.1825   -1.5090 H   0  0  0  0  0  0  0  0  0  0  0  0
    1.4330    1.8677   -1.0831 H   0  0  0  0  0  0  0  0  0  0  0  0
    2.7109   -0.6636   -0.0789 H   0  0  0  0  0  0  0  0  0  0  0  0
    3.2711    2.3700    0.2564 H   0  0  0  0  0  0  0  0  0  0  0  0
    3.5527    1.1336    1.5380 H   0  0  0  0  0  0  0  0  0  0  0  0
    4.7552    0.8413   -1.0649 H   0  0  0  0  0  0  0  0  0  0  0  0
  1  2  1  0
  2  3  1  0
  3  4  1  0
  4  5  2  3
  4  6  1  0
  6  7  1  0
  7  8  2  3
  8  9  1  0
  9 10  1  0
 10 11  2  0
 11 12  1  0
 12 13  1  0
  7  2  1  0
  1 14  1  0
  1 15  1  0
  1 16  1  0
  3 17  1  0
  5 18  1  0
  6 19  1  0
  9 20  1  0
  9 21  1  0
 10 22  1  0
 11 23  1  0
 12 24  1  0
 12 25  1  0
 13 26  1  0
M  END
$$$$

     RDKit          3D

 26 26  0  0  0  0  0  0  0  0999 V2000
   -2.2945   -2.1946    0.1710 C   0  0  0  0  0  0  0  0  0  0  0  0
   -2.4019   -0.7628    0.0517 N   0  0  0  0  0  0  0  0  0  0  0  0
   -3.4783   -0.1130   -0.3502 N   0  0  0  0  0  0  0  0  0  0  0  0
   -3.1693    1.1962   -0.3215 C   0  0  0  0  0  0  0  0  0  0  0  0
   -3.9797    2.1398   -0.6505 N   0  0  0  0  0  0  0  0  0  0  0  0
   -1.8900    1.3381    0.1032 N   0  0  0  0  0  0  0  0  0  0  0  0
   -1.4142    0.1019    0.3358 C   0  0  0  0  0  0  0  0  0  0  0  0
   -0.2427   -0.2395    0.7521 N   0  0  0  0  0  0  0  0  0  0  0  0
    0.8047    0.6833    1.0531 C   0  0  0  0  0  0  0  0  0  0  0  0
    1.9750    0.4549    0.1507 C   0  0  0  0  0  0  0  0  0  0  0  0
    3.1779    0.1351    0.6146 C   0  0  0  0  0  0  0  0  0  0  0  0
    4.3199   -0.0853   -0.3081 C   0  0  0  0  0  0  0  0  0  0  0  0
    4.8315   -1.3757   -0.1829 O   0  0  0  0  0  0  0  0  0  0  0  0
   -1.3306   -2.5135   -0.2882 H   0  0  0  0  0  0  0  0  0  0  0  0
   -2.3027   -2.4282    1.2691 H   0  0  0  0  0  0  0  0  0  0  0  0
   -3.1358   -2.7210   -0.3251 H   0  0  0  0  0  0  0  0  0  0  0  0
   -4.4008   -0.5109   -0.6394 H   0  0  0  0  0  0  0  0  0  0  0  0
   -3.6621    3.1168   -0.5996 H   0  0  0  0  0  0  0  0  0  0  0  0
   -1.3687    2.2417    0.2272 H   0  0  0  0  0  0  0  0  0  0  0  0
    0.4651    1.7133    0.9469 H   0  0  0  0  0  0  0  0  0  0  0  0
    1.1563    0.4538    2.0950 H   0  0  0  0  0  0  0  0  0  0  0  0
    1.8446    0.5522   -0.9259 H   0  0  0  0  0  0  0  0  0  0  0  0
    3.3155    0.0356    1.6988 H   0  0  0  0  0  0  0  0  0  0  0  0
    3.9706    0.0996   -1.3445 H   0  0  0  0  0  0  0  0  0  0  0  0
    5.1206    0.6833   -0.1295 H   0  0  0  0  0  0  0  0  0  0  0  0
    4.0895   -2.0014   -0.2787 H   0  0  0  0  0  0  0  0  0  0  0  0
  1  2  1  0
  2  3  1  0
  3  4  1  0
  4  5  2  3
  4  6  1  0
  6  7  1  0
  7  8  2  3
  8  9  1  0
  9 10  1  0
 10 11  2  0
 11 12  1  0
 12 13  1  0
  7  2  1  0
  1 14  1  0
  1 15  1  0
  1 16  1  0
  3 17  1  0
  5 18  1  0
  6 19  1  0
  9 20  1  0
  9 21  1  0
 10 22  1  0
 11 23  1  0
 12 24  1  0
 12 25  1  0
 13 26  1  0
M  END
$$$$

     RDKit          3D

 26 26  0  0  0  0  0  0  0  0999 V2000
   -2.2433    2.4344    0.2032 C   0  0  0  0  0  0  0  0  0  0  0  0
   -2.4230    1.0073    0.0100 N   0  0  0  0  0  0  0  0  0  0  0  0
   -3.5778    0.3743   -0.0877 N   0  0  0  0  0  0  0  0  0  0  0  0
   -3.3674   -0.9406   -0.2614 C   0  0  0  0  0  0  0  0  0  0  0  0
   -4.3013   -1.8039   -0.3875 N   0  0  0  0  0  0  0  0  0  0  0  0
   -2.0361   -1.1076   -0.2689 N   0  0  0  0  0  0  0  0  0  0  0  0
   -1.4337    0.1073   -0.0995 C   0  0  0  0  0  0  0  0  0  0  0  0
   -0.1498    0.3135   -0.0575 N   0  0  0  0  0  0  0  0  0  0  0  0
    0.7549   -0.7981   -0.1963 C   0  0  0  0  0  0  0  0  0  0  0  0
    2.1151   -0.3977   -0.5730 C   0  0  0  0  0  0  0  0  0  0  0  0
    3.1513   -0.6774    0.2037 C   0  0  0  0  0  0  0  0  0  0  0  0
    4.5515   -0.2704   -0.1748 C   0  0  0  0  0  0  0  0  0  0  0  0
    5.0690    0.5736    0.8074 O   0  0  0  0  0  0  0  0  0  0  0  0
   -3.2256    2.9475    0.1924 H   0  0  0  0  0  0  0  0  0  0  0  0
   -1.7554    2.6548    1.1789 H   0  0  0  0  0  0  0  0  0  0  0  0
   -1.6672    2.8579   -0.6472 H   0  0  0  0  0  0  0  0  0  0  0  0
   -4.5085    0.8573   -0.0334 H   0  0  0  0  0  0  0  0  0  0  0  0
   -4.1982   -2.8116   -0.5214 H   0  0  0  0  0  0  0  0  0  0  0  0
   -1.5481   -2.0161   -0.3852 H   0  0  0  0  0  0  0  0  0  0  0  0
    0.3157   -1.4524   -1.0056 H   0  0  0  0  0  0  0  0  0  0  0  0
    0.7122   -1.4107    0.7224 H   0  0  0  0  0  0  0  0  0  0  0  0
    2.3099    0.1347   -1.4917 H   0  0  0  0  0  0  0  0  0  0  0  0
    3.0534   -1.2037    1.1359 H   0  0  0  0  0  0  0  0  0  0  0  0
    5.1833   -1.1881   -0.2994 H   0  0  0  0  0  0  0  0  0  0  0  0
    4.4977    0.3194   -1.1147 H   0  0  0  0  0  0  0  0  0  0  0  0
    4.7214    1.4963    0.6183 H   0  0  0  0  0  0  0  0  0  0  0  0
  1  2  1  0
  2  3  1  0
  3  4  1  0
  4  5  2  3
  4  6  1  0
  6  7  1  0
  7  8  2  3
  8  9  1  0
  9 10  1  0
 10 11  2  0
 11 12  1  0
 12 13  1  0
  7  2  1  0
  1 14  1  0
  1 15  1  0
  1 16  1  0
  3 17  1  0
  5 18  1  0
  6 19  1  0
  9 20  1  0
  9 21  1  0
 10 22  1  0
 11 23  1  0
 12 24  1  0
 12 25  1  0
 13 26  1  0
M  END
$$$$

     RDKit          3D

 26 26  0  0  0  0  0  0  0  0999 V2000
   -1.7616   -2.3495   -0.8220 C   0  0  0  0  0  0  0  0  0  0  0  0
   -2.1356   -0.9543   -0.5587 N   0  0  0  0  0  0  0  0  0  0  0  0
   -3.3488   -0.4440   -0.6836 N   0  0  0  0  0  0  0  0  0  0  0  0
   -3.3299    0.8567   -0.3626 C   0  0  0  0  0  0  0  0  0  0  0  0
   -4.3326    1.6767   -0.3687 N   0  0  0  0  0  0  0  0  0  0  0  0
   -2.0765    1.1806   -0.0261 N   0  0  0  0  0  0  0  0  0  0  0  0
   -1.3510    0.0562   -0.1511 C   0  0  0  0  0  0  0  0  0  0  0  0
   -0.0721   -0.0421    0.0879 N   0  0  0  0  0  0  0  0  0  0  0  0
    0.6776    1.1116    0.5232 C   0  0  0  0  0  0  0  0  0  0  0  0
    2.1251    0.9896    0.2500 C   0  0  0  0  0  0  0  0  0  0  0  0
    2.6691   -0.0682   -0.3322 C   0  0  0  0  0  0  0  0  0  0  0  0
    4.1551   -0.1228   -0.5792 C   0  0  0  0  0  0  0  0  0  0  0  0
    4.7309   -1.2135    0.0834 O   0  0  0  0  0  0  0  0  0  0  0  0
   -1.0199   -2.7170   -0.0837 H   0  0  0  0  0  0  0  0  0  0  0  0
   -2.6947   -2.9625   -0.7044 H   0  0  0  0  0  0  0  0  0  0  0  0
   -1.4224   -2.4862   -1.8638 H   0  0  0  0  0  0  0  0  0  0  0  0
   -4.2019   -0.9741   -0.9882 H   0  0  0  0  0  0  0  0  0  0  0  0
   -4.2138    2.6651   -0.1033 H   0  0  0  0  0  0  0  0  0  0  0  0
   -1.7219    2.1363    0.2798 H   0  0  0  0  0  0  0  0  0  0  0  0
    0.2898    1.9812   -0.0392 H   0  0  0  0  0  0  0  0  0  0  0  0
    0.5547    1.2058    1.6193 H   0  0  0  0  0  0  0  0  0  0  0  0
    2.7753    1.8017    0.5380 H   0  0  0  0  0  0  0  0  0  0  0  0
    2.0508   -0.8970   -0.6329 H   0  0  0  0  0  0  0  0  0  0  0  0
    4.3892   -0.1603   -1.6434 H   0  0  0  0  0  0  0  0  0  0  0  0
    4.6112    0.8123   -0.1598 H   0  0  0  0  0  0  0  0  0  0  0  0
    4.6540   -1.0821    1.0648 H   0  0  0  0  0  0  0  0  0  0  0  0
  1  2  1  0
  2  3  1  0
  3  4  1  0
  4  5  2  3
  4  6  1  0
  6  7  1  0
  7  8  2  3
  8  9  1  0
  9 10  1  0
 10 11  2  0
 11 12  1  0
 12 13  1  0
  7  2  1  0
  1 14  1  0
  1 15  1  0
  1 16  1  0
  3 17  1  0
  5 18  1  0
  6 19  1  0
  9 20  1  0
  9 21  1  0
 10 22  1  0
 11 23  1  0
 12 24  1  0
 12 25  1  0
 13 26  1  0
M  END
$$$$

     RDKit          3D

 26 26  0  0  0  0  0  0  0  0999 V2000
   -1.9409    1.9036    0.1355 C   0  0  0  0  0  0  0  0  0  0  0  0
   -2.2634    0.4971    0.0192 N   0  0  0  0  0  0  0  0  0  0  0  0
   -3.5356    0.0905    0.0403 N   0  0  0  0  0  0  0  0  0  0  0  0
   -3.5434   -1.2431   -0.0834 C   0  0  0  0  0  0  0  0  0  0  0  0
   -4.6179   -1.9969   -0.1037 N   0  0  0  0  0  0  0  0  0  0  0  0
   -2.2811   -1.6519   -0.1800 N   0  0  0  0  0  0  0  0  0  0  0  0
   -1.4460   -0.5486   -0.1162 C   0  0  0  0  0  0  0  0  0  0  0  0
   -0.1842   -0.6120   -0.1854 N   0  0  0  0  0  0  0  0  0  0  0  0
    0.7294    0.4470   -0.1363 C   0  0  0  0  0  0  0  0  0  0  0  0
    2.0914    0.0330   -0.6364 C   0  0  0  0  0  0  0  0  0  0  0  0
    3.1129    0.1242    0.1718 C   0  0  0  0  0  0  0  0  0  0  0  0
    4.5077   -0.2539   -0.2049 C   0  0  0  0  0  0  0  0  0  0  0  0
    4.9671   -1.2638    0.6308 O   0  0  0  0  0  0  0  0  0  0  0  0
   -1.1631    2.0070    0.9167 H   0  0  0  0  0  0  0  0  0  0  0  0
   -1.7015    2.3767   -0.8256 H   0  0  0  0  0  0  0  0  0  0  0  0
   -2.8617    2.4576    0.5040 H   0  0  0  0  0  0  0  0  0  0  0  0
   -4.4037    0.6975    0.1362 H   0  0  0  0  0  0  0  0  0  0  0  0
   -5.5678   -1.5867   -0.0215 H   0  0  0  0  0  0  0  0  0  0  0  0
   -1.9276   -2.6273   -0.2871 H   0  0  0  0  0  0  0  0  0  0  0  0
    0.3743    1.3085   -0.7340 H   0  0  0  0  0  0  0  0  0  0  0  0
    0.8302    0.8038    0.9281 H   0  0  0  0  0  0  0  0  0  0  0  0
    2.2378   -0.3335   -1.6386 H   0  0  0  0  0  0  0  0  0  0  0  0
    2.9590    0.4939    1.1795 H   0  0  0  0  0  0  0  0  0  0  0  0
    5.1526    0.6459   -0.1253 H   0  0  0  0  0  0  0  0  0  0  0  0
    4.5340   -0.5732   -1.2630 H   0  0  0  0  0  0  0  0  0  0  0  0
    5.9416   -1.1957    0.7500 H   0  0  0  0  0  0  0  0  0  0  0  0
  1  2  1  0
  2  3  1  0
  3  4  1  0
  4  5  2  3
  4  6  1  0
  6  7  1  0
  7  8  2  3
  8  9  1  0
  9 10  1  0
 10 11  2  0
 11 12  1  0
 12 13  1  0
  7  2  1  0
  1 14  1  0
  1 15  1  0
  1 16  1  0
  3 17  1  0
  5 18  1  0
  6 19  1  0
  9 20  1  0
  9 21  1  0
 10 22  1  0
 11 23  1  0
 12 24  1  0
 12 25  1  0
 13 26  1  0
M  END
$$$$

     RDKit          3D

 26 26  0  0  0  0  0  0  0  0999 V2000
   -0.0348    2.2017    0.6936 C   0  0  0  0  0  0  0  0  0  0  0  0
   -1.1966    1.3661    0.9740 N   0  0  0  0  0  0  0  0  0  0  0  0
   -2.0438    1.6488    1.9896 N   0  0  0  0  0  0  0  0  0  0  0  0
   -3.0231    0.7407    2.0415 C   0  0  0  0  0  0  0  0  0  0  0  0
   -4.0217    0.6839    2.8843 N   0  0  0  0  0  0  0  0  0  0  0  0
   -2.7696   -0.1045    1.0463 N   0  0  0  0  0  0  0  0  0  0  0  0
   -1.6288    0.2639    0.3593 C   0  0  0  0  0  0  0  0  0  0  0  0
   -1.1588   -0.3555   -0.6293 N   0  0  0  0  0  0  0  0  0  0  0  0
   -0.0384   -0.0963   -1.4042 C   0  0  0  0  0  0  0  0  0  0  0  0
    1.2039   -0.8058   -0.9721 C   0  0  0  0  0  0  0  0  0  0  0  0
    1.8372   -1.6428   -1.7745 C   0  0  0  0  0  0  0  0  0  0  0  0
    3.0816   -2.3647   -1.3656 C   0  0  0  0  0  0  0  0  0  0  0  0
    4.0858   -1.9942   -2.2452 O   0  0  0  0  0  0  0  0  0  0  0  0
    0.8580    1.5645    0.5806 H   0  0  0  0  0  0  0  0  0  0  0  0
   -0.1868    2.7967   -0.2131 H   0  0  0  0  0  0  0  0  0  0  0  0
    0.1510    2.8636    1.5876 H   0  0  0  0  0  0  0  0  0  0  0  0
   -1.9488    2.4552    2.6364 H   0  0  0  0  0  0  0  0  0  0  0  0
   -4.0725    1.4418    3.6186 H   0  0  0  0  0  0  0  0  0  0  0  0
   -3.3297   -0.9324    0.7955 H   0  0  0  0  0  0  0  0  0  0  0  0
    0.2145    0.9677   -1.5828 H   0  0  0  0  0  0  0  0  0  0  0  0
   -0.2956   -0.4866   -2.4674 H   0  0  0  0  0  0  0  0  0  0  0  0
    1.5902   -0.6325    0.0138 H   0  0  0  0  0  0  0  0  0  0  0  0
    1.4036   -1.7830   -2.7600 H   0  0  0  0  0  0  0  0  0  0  0  0
    3.3878   -2.0972   -0.3375 H   0  0  0  0  0  0  0  0  0  0  0  0
    2.9737   -3.4650   -1.4436 H   0  0  0  0  0  0  0  0  0  0  0  0
    4.9617   -2.2339   -1.8511 H   0  0  0  0  0  0  0  0  0  0  0  0
  1  2  1  0
  2  3  1  0
  3  4  1  0
  4  5  2  3
  4  6  1  0
  6  7  1  0
  7  8  2  3
  8  9  1  0
  9 10  1  0
 10 11  2  0
 11 12  1  0
 12 13  1  0
  7  2  1  0
  1 14  1  0
  1 15  1  0
  1 16  1  0
  3 17  1  0
  5 18  1  0
  6 19  1  0
  9 20  1  0
  9 21  1  0
 10 22  1  0
 11 23  1  0
 12 24  1  0
 12 25  1  0
 13 26  1  0
M  END
$$$$
