
     RDKit          3D

 20 20  0  0  0  0  0  0  0  0999 V2000
    2.4189    0.7059    1.2183 O   0  0  0  0  0  0  0  0  0  0  0  0
    2.2430    0.0170    0.1915 C   0  0  0  0  0  0  0  0  0  0  0  0
    3.2021    0.1180   -0.8113 O   0  0  0  0  0  0  0  0  0  0  0  0
    1.0704   -0.8682    0.0366 C   0  0  0  0  0  0  0  0  0  0  0  0
   -0.2486   -0.1596    0.1855 C   0  0  0  0  0  0  0  0  0  0  0  0
   -0.4856    0.5014    1.4331 N   0  0  0  0  0  0  0  0  0  0  0  0
   -1.7168    1.0764    1.4188 O   0  0  0  0  0  0  0  0  0  0  0  0
   -0.7614    0.5450   -1.0462 C   0  0  0  0  0  0  0  0  0  0  0  0
   -2.0917    0.1202   -0.6616 N   0  0  0  0  0  0  0  0  0  0  0  0
   -1.4440   -1.0687   -0.1032 C   0  0  0  0  0  0  0  0  0  0  0  0
    4.0425    0.6872   -0.7382 H   0  0  0  0  0  0  0  0  0  0  0  0
    1.1227   -1.4296   -0.9198 H   0  0  0  0  0  0  0  0  0  0  0  0
    1.0967   -1.6641    0.8312 H   0  0  0  0  0  0  0  0  0  0  0  0
    0.2123    1.2580    1.6547 H   0  0  0  0  0  0  0  0  0  0  0  0
   -1.7332    1.9543    1.8874 H   0  0  0  0  0  0  0  0  0  0  0  0
   -0.4577    0.0062   -1.9663 H   0  0  0  0  0  0  0  0  0  0  0  0
   -0.5971    1.6276   -1.0755 H   0  0  0  0  0  0  0  0  0  0  0  0
   -2.7143   -0.1255   -1.4687 H   0  0  0  0  0  0  0  0  0  0  0  0
   -1.2011   -1.8511   -0.8677 H   0  0  0  0  0  0  0  0  0  0  0  0
   -1.9571   -1.4502    0.8011 H   0  0  0  0  0  0  0  0  0  0  0  0
  1  2  2  0
  2  3  1  0
  2  4  1  0
  4  5  1  0
  5  6  1  0
  6  7  1  0
  5  8  1  0
  8  9  1  0
  9 10  1  0
 10  5  1  0
  3 11  1  0
  4 12  1  0
  4 13  1  0
  6 14  1  0
  7 15  1  0
  8 16  1  0
  8 17  1  0
  9 18  1  0
 10 19  1  0
 10 20  1  0
M  END
$$$$

     RDKit          3D

 20 20  0  0  0  0  0  0  0  0999 V2000
    3.1443    0.6171    0.9846 O   0  0  0  0  0  0  0  0  0  0  0  0
    2.1095    0.4883    0.2796 C   0  0  0  0  0  0  0  0  0  0  0  0
    2.2371    0.7166   -1.0748 O   0  0  0  0  0  0  0  0  0  0  0  0
    0.8655    0.1086    0.9585 C   0  0  0  0  0  0  0  0  0  0  0  0
   -0.3185   -0.0263    0.0646 C   0  0  0  0  0  0  0  0  0  0  0  0
   -0.6905    1.1460   -0.6552 N   0  0  0  0  0  0  0  0  0  0  0  0
   -0.9850    2.1270    0.2006 O   0  0  0  0  0  0  0  0  0  0  0  0
   -0.4432   -1.2631   -0.7567 C   0  0  0  0  0  0  0  0  0  0  0  0
   -1.8754   -1.2168   -0.4888 N   0  0  0  0  0  0  0  0  0  0  0  0
   -1.4957   -0.6282    0.8076 C   0  0  0  0  0  0  0  0  0  0  0  0
    3.0709    0.3999   -1.5623 H   0  0  0  0  0  0  0  0  0  0  0  0
    1.0323   -0.8111    1.5556 H   0  0  0  0  0  0  0  0  0  0  0  0
    0.6319    0.9159    1.7013 H   0  0  0  0  0  0  0  0  0  0  0  0
    0.0103    1.4126   -1.3782 H   0  0  0  0  0  0  0  0  0  0  0  0
   -1.3243    2.9431   -0.2093 H   0  0  0  0  0  0  0  0  0  0  0  0
   -0.1788   -1.1882   -1.8284 H   0  0  0  0  0  0  0  0  0  0  0  0
   -0.0583   -2.2040   -0.2990 H   0  0  0  0  0  0  0  0  0  0  0  0
   -2.3259   -2.1488   -0.4028 H   0  0  0  0  0  0  0  0  0  0  0  0
   -2.2117    0.0809    1.2193 H   0  0  0  0  0  0  0  0  0  0  0  0
   -1.1944   -1.4698    1.4730 H   0  0  0  0  0  0  0  0  0  0  0  0
  1  2  2  0
  2  3  1  0
  2  4  1  0
  4  5  1  0
  5  6  1  0
  6  7  1  0
  5  8  1  0
  8  9  1  0
  9 10  1  0
 10  5  1  0
  3 11  1  0
  4 12  1  0
  4 13  1  0
  6 14  1  0
  7 15  1  0
  8 16  1  0
  8 17  1  0
  9 18  1  0
 10 19  1  0
 10 20  1  0
M  END
$$$$

     RDKit          3D

 20 20  0  0  0  0  0  0  0  0999 V2000
    1.5967   -1.9055    0.4445 O   0  0  0  0  0  0  0  0  0  0  0  0
    1.9276   -0.7348    0.2034 C   0  0  0  0  0  0  0  0  0  0  0  0
    3.3172   -0.4864    0.2392 O   0  0  0  0  0  0  0  0  0  0  0  0
    1.0946    0.4185   -0.1104 C   0  0  0  0  0  0  0  0  0  0  0  0
   -0.3651    0.2283   -0.2231 C   0  0  0  0  0  0  0  0  0  0  0  0
   -0.9011   -0.6518   -1.2051 N   0  0  0  0  0  0  0  0  0  0  0  0
   -0.4966   -1.9006   -0.9998 O   0  0  0  0  0  0  0  0  0  0  0  0
   -1.0533    1.6080   -0.2022 C   0  0  0  0  0  0  0  0  0  0  0  0
   -2.1327    0.9614    0.5306 N   0  0  0  0  0  0  0  0  0  0  0  0
   -1.1183    0.0836    1.0875 C   0  0  0  0  0  0  0  0  0  0  0  0
    3.9530   -1.1262    0.6979 H   0  0  0  0  0  0  0  0  0  0  0  0
    1.4325    0.8638   -1.0985 H   0  0  0  0  0  0  0  0  0  0  0  0
    1.3566    1.2262    0.6367 H   0  0  0  0  0  0  0  0  0  0  0  0
   -0.6190   -0.3834   -2.1904 H   0  0  0  0  0  0  0  0  0  0  0  0
   -1.2233   -2.5528   -0.8557 H   0  0  0  0  0  0  0  0  0  0  0  0
   -0.5068    2.2819    0.4738 H   0  0  0  0  0  0  0  0  0  0  0  0
   -1.3131    1.9855   -1.1949 H   0  0  0  0  0  0  0  0  0  0  0  0
   -2.8557    0.5086   -0.0489 H   0  0  0  0  0  0  0  0  0  0  0  0
   -0.6162    0.5306    1.9630 H   0  0  0  0  0  0  0  0  0  0  0  0
   -1.4770   -0.9550    1.2892 H   0  0  0  0  0  0  0  0  0  0  0  0
  1  2  2  0
  2  3  1  0
  2  4  1  0
  4  5  1  0
  5  6  1  0
  6  7  1  0
  5  8  1  0
  8  9  1  0
  9 10  1  0
 10  5  1  0
  3 11  1  0
  4 12  1  0
  4 13  1  0
  6 14  1  0
  7 15  1  0
  8 16  1  0
  8 17  1  0
  9 18  1  0
 10 19  1  0
 10 20  1  0
M  END
$$$$

     RDKit          3D

 20 20  0  0  0  0  0  0  0  0999 V2000
    2.4421   -0.1479   -0.6950 O   0  0  0  0  0  0  0  0  0  0  0  0
    1.6416    0.6421   -1.2097 C   0  0  0  0  0  0  0  0  0  0  0  0
    2.1849    1.4415   -2.2416 O   0  0  0  0  0  0  0  0  0  0  0  0
    0.2385    0.8694   -0.9149 C   0  0  0  0  0  0  0  0  0  0  0  0
   -0.4142    0.0880    0.1203 C   0  0  0  0  0  0  0  0  0  0  0  0
   -1.8104    0.4661    0.2682 N   0  0  0  0  0  0  0  0  0  0  0  0
   -2.4472   -0.2206    1.2057 O   0  0  0  0  0  0  0  0  0  0  0  0
    0.2079   -0.2289    1.4074 C   0  0  0  0  0  0  0  0  0  0  0  0
   -0.3293   -1.5647    1.3340 N   0  0  0  0  0  0  0  0  0  0  0  0
   -0.2333   -1.4211   -0.1094 C   0  0  0  0  0  0  0  0  0  0  0  0
    3.1100    1.2712   -2.6141 H   0  0  0  0  0  0  0  0  0  0  0  0
    0.1189    1.9762   -0.7089 H   0  0  0  0  0  0  0  0  0  0  0  0
   -0.3242    0.7377   -1.8890 H   0  0  0  0  0  0  0  0  0  0  0  0
   -1.9557    1.4784    0.2479 H   0  0  0  0  0  0  0  0  0  0  0  0
   -3.2900    0.2773    1.4214 H   0  0  0  0  0  0  0  0  0  0  0  0
    1.2898   -0.1326    1.5368 H   0  0  0  0  0  0  0  0  0  0  0  0
   -0.3016    0.3137    2.2435 H   0  0  0  0  0  0  0  0  0  0  0  0
    0.2447   -2.3067    1.7400 H   0  0  0  0  0  0  0  0  0  0  0  0
   -1.1116   -1.8289   -0.6478 H   0  0  0  0  0  0  0  0  0  0  0  0
    0.7390   -1.7103   -0.4947 H   0  0  0  0  0  0  0  0  0  0  0  0
  1  2  2  0
  2  3  1  0
  2  4  1  0
  4  5  1  0
  5  6  1  0
  6  7  1  0
  5  8  1  0
  8  9  1  0
  9 10  1  0
 10  5  1  0
  3 11  1  0
  4 12  1  0
  4 13  1  0
  6 14  1  0
  7 15  1  0
  8 16  1  0
  8 17  1  0
  9 18  1  0
 10 19  1  0
 10 20  1  0
M  END
$$$$

     RDKit          3D

 20 20  0  0  0  0  0  0  0  0999 V2000
    2.0041   -0.6858   -1.3218 O   0  0  0  0  0  0  0  0  0  0  0  0
    2.0773   -0.5325   -0.0764 C   0  0  0  0  0  0  0  0  0  0  0  0
    3.2711   -0.6698    0.5884 O   0  0  0  0  0  0  0  0  0  0  0  0
    0.8663   -0.1998    0.6892 C   0  0  0  0  0  0  0  0  0  0  0  0
   -0.3617   -0.0827   -0.1777 C   0  0  0  0  0  0  0  0  0  0  0  0
   -0.7248   -1.2480   -0.9091 N   0  0  0  0  0  0  0  0  0  0  0  0
   -0.9630   -2.2465   -0.0002 O   0  0  0  0  0  0  0  0  0  0  0  0
   -0.3722    1.2255   -0.9299 C   0  0  0  0  0  0  0  0  0  0  0  0
   -0.7758    1.8489    0.3395 N   0  0  0  0  0  0  0  0  0  0  0  0
   -1.4963    0.5935    0.5922 C   0  0  0  0  0  0  0  0  0  0  0  0
    4.0223   -1.2583    0.1995 H   0  0  0  0  0  0  0  0  0  0  0  0
    0.6227   -0.9736    1.4713 H   0  0  0  0  0  0  0  0  0  0  0  0
    1.0427    0.7343    1.2581 H   0  0  0  0  0  0  0  0  0  0  0  0
   -1.6388   -1.0708   -1.3781 H   0  0  0  0  0  0  0  0  0  0  0  0
   -1.6058   -1.8972    0.6657 H   0  0  0  0  0  0  0  0  0  0  0  0
    0.5824    1.5712   -1.3275 H   0  0  0  0  0  0  0  0  0  0  0  0
   -1.2062    1.2999   -1.6573 H   0  0  0  0  0  0  0  0  0  0  0  0
   -1.3680    2.6779    0.2442 H   0  0  0  0  0  0  0  0  0  0  0  0
   -1.5268    0.2936    1.6446 H   0  0  0  0  0  0  0  0  0  0  0  0
   -2.4494    0.6204    0.0431 H   0  0  0  0  0  0  0  0  0  0  0  0
  1  2  2  0
  2  3  1  0
  2  4  1  0
  4  5  1  0
  5  6  1  0
  6  7  1  0
  5  8  1  0
  8  9  1  0
  9 10  1  0
 10  5  1  0
  3 11  1  0
  4 12  1  0
  4 13  1  0
  6 14  1  0
  7 15  1  0
  8 16  1  0
  8 17  1  0
  9 18  1  0
 10 19  1  0
 10 20  1  0
M  END
$$$$

     RDKit          3D

 20 20  0  0  0  0  0  0  0  0999 V2000
    2.3229    1.6278   -0.4240 O   0  0  0  0  0  0  0  0  0  0  0  0
    2.1541    0.4487   -0.0175 C   0  0  0  0  0  0  0  0  0  0  0  0
    3.1787   -0.4337   -0.3220 O   0  0  0  0  0  0  0  0  0  0  0  0
    0.9286    0.1470    0.7119 C   0  0  0  0  0  0  0  0  0  0  0  0
   -0.2992   -0.0156   -0.1075 C   0  0  0  0  0  0  0  0  0  0  0  0
   -0.6626    1.1464   -0.8833 N   0  0  0  0  0  0  0  0  0  0  0  0
   -0.8751    2.1677   -0.0272 O   0  0  0  0  0  0  0  0  0  0  0  0
   -1.4711   -0.3713    0.8218 C   0  0  0  0  0  0  0  0  0  0  0  0
   -1.1210   -1.7767    0.5557 N   0  0  0  0  0  0  0  0  0  0  0  0
   -0.6112   -1.3149   -0.7204 C   0  0  0  0  0  0  0  0  0  0  0  0
    4.1153   -0.1267   -0.5828 H   0  0  0  0  0  0  0  0  0  0  0  0
    0.7407    1.0127    1.4171 H   0  0  0  0  0  0  0  0  0  0  0  0
    1.1272   -0.7150    1.3817 H   0  0  0  0  0  0  0  0  0  0  0  0
   -1.4728    0.9758   -1.5096 H   0  0  0  0  0  0  0  0  0  0  0  0
   -1.0752    3.0113   -0.4668 H   0  0  0  0  0  0  0  0  0  0  0  0
   -1.2940   -0.1478    1.8823 H   0  0  0  0  0  0  0  0  0  0  0  0
   -2.4551   -0.1164    0.4052 H   0  0  0  0  0  0  0  0  0  0  0  0
   -1.9631   -2.3833    0.4946 H   0  0  0  0  0  0  0  0  0  0  0  0
    0.1872   -1.9099   -1.1698 H   0  0  0  0  0  0  0  0  0  0  0  0
   -1.4542   -1.2260   -1.4396 H   0  0  0  0  0  0  0  0  0  0  0  0
  1  2  2  0
  2  3  1  0
  2  4  1  0
  4  5  1  0
  5  6  1  0
  6  7  1  0
  5  8  1  0
  8  9  1  0
  9 10  1  0
 10  5  1  0
  3 11  1  0
  4 12  1  0
  4 13  1  0
  6 14  1  0
  7 15  1  0
  8 16  1  0
  8 17  1  0
  9 18  1  0
 10 19  1  0
 10 20  1  0
M  END
$$$$

     RDKit          3D

 20 20  0  0  0  0  0  0  0  0999 V2000
    1.6036    1.7122    0.8016 O   0  0  0  0  0  0  0  0  0  0  0  0
    1.9334    0.5836    0.3841 C   0  0  0  0  0  0  0  0  0  0  0  0
    3.3285    0.3519    0.4828 O   0  0  0  0  0  0  0  0  0  0  0  0
    1.0346   -0.4441   -0.1626 C   0  0  0  0  0  0  0  0  0  0  0  0
   -0.3938   -0.0873   -0.3004 C   0  0  0  0  0  0  0  0  0  0  0  0
   -0.7023    0.9969   -1.1579 N   0  0  0  0  0  0  0  0  0  0  0  0
   -0.2367    2.1902   -0.8761 O   0  0  0  0  0  0  0  0  0  0  0  0
   -1.2030   -1.3243   -0.6550 C   0  0  0  0  0  0  0  0  0  0  0  0
   -1.4103   -1.5759    0.7490 N   0  0  0  0  0  0  0  0  0  0  0  0
   -1.2055   -0.1533    0.9835 C   0  0  0  0  0  0  0  0  0  0  0  0
    3.9823    1.1245    0.5081 H   0  0  0  0  0  0  0  0  0  0  0  0
    1.4002   -0.7067   -1.2002 H   0  0  0  0  0  0  0  0  0  0  0  0
    1.1387   -1.4227    0.3895 H   0  0  0  0  0  0  0  0  0  0  0  0
   -0.5972    0.7351   -2.1598 H   0  0  0  0  0  0  0  0  0  0  0  0
   -0.7766    2.7425   -0.2537 H   0  0  0  0  0  0  0  0  0  0  0  0
   -0.5886   -2.1378   -1.1246 H   0  0  0  0  0  0  0  0  0  0  0  0
   -2.1099   -1.1539   -1.2393 H   0  0  0  0  0  0  0  0  0  0  0  0
   -2.4063   -1.8913    0.9341 H   0  0  0  0  0  0  0  0  0  0  0  0
   -2.1630    0.3969    0.8825 H   0  0  0  0  0  0  0  0  0  0  0  0
   -0.6282    0.0636    1.8932 H   0  0  0  0  0  0  0  0  0  0  0  0
  1  2  2  0
  2  3  1  0
  2  4  1  0
  4  5  1  0
  5  6  1  0
  6  7  1  0
  5  8  1  0
  8  9  1  0
  9 10  1  0
 10  5  1  0
  3 11  1  0
  4 12  1  0
  4 13  1  0
  6 14  1  0
  7 15  1  0
  8 16  1  0
  8 17  1  0
  9 18  1  0
 10 19  1  0
 10 20  1  0
M  END
$$$$

     RDKit          3D

 20 20  0  0  0  0  0  0  0  0999 V2000
    1.7414   -0.0560   -1.5931 O   0  0  0  0  0  0  0  0  0  0  0  0
    2.0029   -0.4561   -0.4507 C   0  0  0  0  0  0  0  0  0  0  0  0
    3.2512   -0.9597   -0.1298 O   0  0  0  0  0  0  0  0  0  0  0  0
    0.9181   -0.3770    0.5782 C   0  0  0  0  0  0  0  0  0  0  0  0
   -0.3371    0.1955    0.0136 C   0  0  0  0  0  0  0  0  0  0  0  0
   -0.2747    1.5076   -0.5201 N   0  0  0  0  0  0  0  0  0  0  0  0
    0.0937    2.4118    0.3792 O   0  0  0  0  0  0  0  0  0  0  0  0
   -1.0843   -0.8328   -0.8012 C   0  0  0  0  0  0  0  0  0  0  0  0
   -1.5384   -1.3930    0.4770 N   0  0  0  0  0  0  0  0  0  0  0  0
   -1.4954   -0.0153    0.9898 C   0  0  0  0  0  0  0  0  0  0  0  0
    4.0618   -0.7591   -0.6804 H   0  0  0  0  0  0  0  0  0  0  0  0
    1.2335    0.2786    1.4282 H   0  0  0  0  0  0  0  0  0  0  0  0
    0.7588   -1.3810    0.9967 H   0  0  0  0  0  0  0  0  0  0  0  0
   -1.0158    1.7697   -1.1700 H   0  0  0  0  0  0  0  0  0  0  0  0
    0.2124    3.3077    0.0130 H   0  0  0  0  0  0  0  0  0  0  0  0
   -0.4399   -1.5427   -1.3565 H   0  0  0  0  0  0  0  0  0  0  0  0
   -1.9564   -0.4477   -1.3486 H   0  0  0  0  0  0  0  0  0  0  0  0
   -2.4682   -1.8228    0.4566 H   0  0  0  0  0  0  0  0  0  0  0  0
   -1.2353    0.0658    2.0469 H   0  0  0  0  0  0  0  0  0  0  0  0
   -2.4285    0.5065    0.6712 H   0  0  0  0  0  0  0  0  0  0  0  0
  1  2  2  0
  2  3  1  0
  2  4  1  0
  4  5  1  0
  5  6  1  0
  6  7  1  0
  5  8  1  0
  8  9  1  0
  9 10  1  0
 10  5  1  0
  3 11  1  0
  4 12  1  0
  4 13  1  0
  6 14  1  0
  7 15  1  0
  8 16  1  0
  8 17  1  0
  9 18  1  0
 10 19  1  0
 10 20  1  0
M  END
$$$$
