
     RDKit          3D

 31 31  0  0  0  0  0  0  0  0999 V2000
    5.0143   -0.1411   -0.3007 C   0  0  0  0  0  0  0  0  0  0  0  0
    4.3735    1.1248    0.2569 C   0  0  0  0  0  0  0  0  0  0  0  0
    3.0716    0.8517    0.8380 N   0  0  0  0  0  0  0  0  0  0  0  0
    1.9927    0.3108    0.0878 C   0  0  0  0  0  0  0  0  0  0  0  0
    2.1822    0.0608   -1.1334 O   0  0  0  0  0  0  0  0  0  0  0  0
    0.7073    0.0677    0.7671 C   0  0  0  0  0  0  0  0  0  0  0  0
   -0.3410   -0.4831   -0.2001 C   0  0  0  0  0  0  0  0  0  0  0  0
   -1.5341   -0.6793    0.5547 N   0  0  0  0  0  0  0  0  0  0  0  0
   -2.6621   -1.1849   -0.1469 C   0  0  2  0  0  0  0  0  0  0  0  0
   -3.0708   -0.1905   -1.2146 C   0  0  0  0  0  0  0  0  0  0  0  0
   -3.4685    0.9400   -0.3910 N   0  0  0  0  0  0  0  0  0  0  0  0
   -3.9974    0.4276    0.8216 C   0  0  0  0  0  0  0  0  0  0  0  0
   -4.4881    1.1008    1.7515 O   0  0  0  0  0  0  0  0  0  0  0  0
   -3.8681   -1.0489    0.7987 C   0  0  0  0  0  0  0  0  0  0  0  0
    6.1242    0.0059   -0.1905 H   0  0  0  0  0  0  0  0  0  0  0  0
    4.6897   -0.2462   -1.3404 H   0  0  0  0  0  0  0  0  0  0  0  0
    4.6595   -0.9750    0.3699 H   0  0  0  0  0  0  0  0  0  0  0  0
    4.2794    1.8983   -0.5476 H   0  0  0  0  0  0  0  0  0  0  0  0
    5.0208    1.5519    1.0359 H   0  0  0  0  0  0  0  0  0  0  0  0
    2.8901    1.0541    1.8632 H   0  0  0  0  0  0  0  0  0  0  0  0
    0.2961    0.9433    1.2780 H   0  0  0  0  0  0  0  0  0  0  0  0
    0.8949   -0.7013    1.5555 H   0  0  0  0  0  0  0  0  0  0  0  0
   -0.0218   -1.4080   -0.6862 H   0  0  0  0  0  0  0  0  0  0  0  0
   -0.4696    0.2897   -0.9884 H   0  0  0  0  0  0  0  0  0  0  0  0
   -1.7549    0.1682    1.1197 H   0  0  0  0  0  0  0  0  0  0  0  0
   -2.5577   -2.2086   -0.5229 H   0  0  0  0  0  0  0  0  0  0  0  0
   -2.2645    0.0615   -1.9160 H   0  0  0  0  0  0  0  0  0  0  0  0
   -3.9970   -0.5343   -1.7223 H   0  0  0  0  0  0  0  0  0  0  0  0
   -3.3629    1.9344   -0.6860 H   0  0  0  0  0  0  0  0  0  0  0  0
   -4.7670   -1.5066    0.3499 H   0  0  0  0  0  0  0  0  0  0  0  0
   -3.5707   -1.4839    1.7596 H   0  0  0  0  0  0  0  0  0  0  0  0
  1  2  1  0
  2  3  1  0
  3  4  1  0
  4  5  2  0
  4  6  1  0
  6  7  1  0
  7  8  1  0
  8  9  1  0
  9 10  1  0
 10 11  1  0
 11 12  1  0
 12 13  2  0
 12 14  1  0
 14  9  1  0
  1 15  1  0
  1 16  1  0
  1 17  1  0
  2 18  1  0
  2 19  1  0
  3 20  1  0
  6 21  1  0
  6 22  1  0
  7 23  1  0
  7 24  1  0
  8 25  1  0
  9 26  1  6
 10 27  1  0
 10 28  1  0
 11 29  1  0
 14 30  1  0
 14 31  1  0
M  END
$$$$

     RDKit          3D

 31 31  0  0  0  0  0  0  0  0999 V2000
   -4.7707   -0.3523   -0.4615 C   0  0  0  0  0  0  0  0  0  0  0  0
   -4.5936    1.0561    0.0750 C   0  0  0  0  0  0  0  0  0  0  0  0
   -3.3327    1.0800    0.8215 N   0  0  0  0  0  0  0  0  0  0  0  0
   -2.1035    0.7729    0.1884 C   0  0  0  0  0  0  0  0  0  0  0  0
   -2.1010    0.4767   -1.0289 O   0  0  0  0  0  0  0  0  0  0  0  0
   -0.8151    0.7886    0.9157 C   0  0  0  0  0  0  0  0  0  0  0  0
    0.3226    0.4070   -0.0027 C   0  0  0  0  0  0  0  0  0  0  0  0
    1.5443    0.4369    0.7492 N   0  0  0  0  0  0  0  0  0  0  0  0
    2.6471    0.0682   -0.1050 C   0  0  2  0  0  0  0  0  0  0  0  0
    2.5483   -1.3242   -0.6397 C   0  0  0  0  0  0  0  0  0  0  0  0
    3.9014   -1.5803   -1.0828 N   0  0  0  0  0  0  0  0  0  0  0  0
    4.7351   -0.9456   -0.1245 C   0  0  0  0  0  0  0  0  0  0  0  0
    5.9735   -1.1497    0.0154 O   0  0  0  0  0  0  0  0  0  0  0  0
    3.9289    0.0025    0.6976 C   0  0  0  0  0  0  0  0  0  0  0  0
   -3.8919   -1.0032   -0.2082 H   0  0  0  0  0  0  0  0  0  0  0  0
   -4.8977   -0.3568   -1.5525 H   0  0  0  0  0  0  0  0  0  0  0  0
   -5.6500   -0.8253    0.0347 H   0  0  0  0  0  0  0  0  0  0  0  0
   -4.4666    1.7276   -0.7979 H   0  0  0  0  0  0  0  0  0  0  0  0
   -5.4216    1.3866    0.7053 H   0  0  0  0  0  0  0  0  0  0  0  0
   -3.3179    1.3278    1.8458 H   0  0  0  0  0  0  0  0  0  0  0  0
   -0.6197    1.7972    1.3467 H   0  0  0  0  0  0  0  0  0  0  0  0
   -0.8575    0.0233    1.7103 H   0  0  0  0  0  0  0  0  0  0  0  0
    0.4270    1.1434   -0.8398 H   0  0  0  0  0  0  0  0  0  0  0  0
    0.1222   -0.5702   -0.4717 H   0  0  0  0  0  0  0  0  0  0  0  0
    1.5237   -0.1556    1.6041 H   0  0  0  0  0  0  0  0  0  0  0  0
    2.7309    0.7823   -0.9356 H   0  0  0  0  0  0  0  0  0  0  0  0
    1.8015   -1.4393   -1.4480 H   0  0  0  0  0  0  0  0  0  0  0  0
    2.3077   -2.0259    0.2105 H   0  0  0  0  0  0  0  0  0  0  0  0
    4.1875   -2.1137   -1.9242 H   0  0  0  0  0  0  0  0  0  0  0  0
    3.7274   -0.4366    1.6895 H   0  0  0  0  0  0  0  0  0  0  0  0
    4.4104    1.0015    0.7534 H   0  0  0  0  0  0  0  0  0  0  0  0
  1  2  1  0
  2  3  1  0
  3  4  1  0
  4  5  2  0
  4  6  1  0
  6  7  1  0
  7  8  1  0
  8  9  1  0
  9 10  1  0
 10 11  1  0
 11 12  1  0
 12 13  2  0
 12 14  1  0
 14  9  1  0
  1 15  1  0
  1 16  1  0
  1 17  1  0
  2 18  1  0
  2 19  1  0
  3 20  1  0
  6 21  1  0
  6 22  1  0
  7 23  1  0
  7 24  1  0
  8 25  1  0
  9 26  1  6
 10 27  1  0
 10 28  1  0
 11 29  1  0
 14 30  1  0
 14 31  1  0
M  END
$$$$

     RDKit          3D

 31 31  0  0  0  0  0  0  0  0999 V2000
    5.0333    0.7274    0.2438 C   0  0  0  0  0  0  0  0  0  0  0  0
    3.8818    0.5055   -0.6746 C   0  0  0  0  0  0  0  0  0  0  0  0
    2.7107    0.0141    0.0171 N   0  0  0  0  0  0  0  0  0  0  0  0
    1.5154   -0.2469   -0.6616 C   0  0  0  0  0  0  0  0  0  0  0  0
    1.4243   -0.0638   -1.8909 O   0  0  0  0  0  0  0  0  0  0  0  0
    0.2840   -0.7548    0.0252 C   0  0  0  0  0  0  0  0  0  0  0  0
   -0.8353   -0.9964   -0.9170 C   0  0  0  0  0  0  0  0  0  0  0  0
   -1.9823   -1.4920   -0.3175 N   0  0  0  0  0  0  0  0  0  0  0  0
   -2.8471   -0.7915    0.5011 C   0  0  2  0  0  0  0  0  0  0  0  0
   -3.5338    0.3920   -0.1646 C   0  0  0  0  0  0  0  0  0  0  0  0
   -2.8105    1.5217    0.3822 N   0  0  0  0  0  0  0  0  0  0  0  0
   -2.3655    1.2315    1.6993 C   0  0  0  0  0  0  0  0  0  0  0  0
   -2.0020    2.0192    2.5949 O   0  0  0  0  0  0  0  0  0  0  0  0
   -2.4193   -0.2691    1.8193 C   0  0  0  0  0  0  0  0  0  0  0  0
    5.4285    1.7510    0.0864 H   0  0  0  0  0  0  0  0  0  0  0  0
    4.6696    0.6416    1.3043 H   0  0  0  0  0  0  0  0  0  0  0  0
    5.8589    0.0011    0.1249 H   0  0  0  0  0  0  0  0  0  0  0  0
    3.5977    1.4739   -1.1479 H   0  0  0  0  0  0  0  0  0  0  0  0
    4.1616   -0.1627   -1.5195 H   0  0  0  0  0  0  0  0  0  0  0  0
    2.7645   -0.1536    1.0581 H   0  0  0  0  0  0  0  0  0  0  0  0
    0.5453   -1.7024    0.5110 H   0  0  0  0  0  0  0  0  0  0  0  0
    0.0256    0.0470    0.7349 H   0  0  0  0  0  0  0  0  0  0  0  0
   -0.5032   -1.7608   -1.6923 H   0  0  0  0  0  0  0  0  0  0  0  0
   -1.0221   -0.0895   -1.5766 H   0  0  0  0  0  0  0  0  0  0  0  0
   -2.3313   -2.3884   -0.6545 H   0  0  0  0  0  0  0  0  0  0  0  0
   -3.7248   -1.5071    0.7300 H   0  0  0  0  0  0  0  0  0  0  0  0
   -3.5202    0.3199   -1.2510 H   0  0  0  0  0  0  0  0  0  0  0  0
   -4.5822    0.4609    0.1865 H   0  0  0  0  0  0  0  0  0  0  0  0
   -2.6520    2.4086   -0.1352 H   0  0  0  0  0  0  0  0  0  0  0  0
   -3.2334   -0.4269    2.6052 H   0  0  0  0  0  0  0  0  0  0  0  0
   -1.5363   -0.7094    2.2722 H   0  0  0  0  0  0  0  0  0  0  0  0
  1  2  1  0
  2  3  1  0
  3  4  1  0
  4  5  2  0
  4  6  1  0
  6  7  1  0
  7  8  1  0
  8  9  1  0
  9 10  1  0
 10 11  1  0
 11 12  1  0
 12 13  2  0
 12 14  1  0
 14  9  1  0
  1 15  1  0
  1 16  1  0
  1 17  1  0
  2 18  1  0
  2 19  1  0
  3 20  1  0
  6 21  1  0
  6 22  1  0
  7 23  1  0
  7 24  1  0
  8 25  1  0
  9 26  1  1
 10 27  1  0
 10 28  1  0
 11 29  1  0
 14 30  1  0
 14 31  1  0
M  END
$$$$

     RDKit          3D

 31 31  0  0  0  0  0  0  0  0999 V2000
    4.7770    0.7669    0.1509 C   0  0  0  0  0  0  0  0  0  0  0  0
    3.6076   -0.0301    0.6820 C   0  0  0  0  0  0  0  0  0  0  0  0
    2.5599   -0.1468   -0.3113 N   0  0  0  0  0  0  0  0  0  0  0  0
    1.3802   -0.8585   -0.0031 C   0  0  0  0  0  0  0  0  0  0  0  0
    1.2513   -1.3772    1.1148 O   0  0  0  0  0  0  0  0  0  0  0  0
    0.3399   -0.9385   -1.0785 C   0  0  0  0  0  0  0  0  0  0  0  0
   -0.8683   -1.7238   -0.6511 C   0  0  0  0  0  0  0  0  0  0  0  0
   -1.5908   -1.3249    0.4523 N   0  0  0  0  0  0  0  0  0  0  0  0
   -2.3619   -0.1939    0.5823 C   0  0  2  0  0  0  0  0  0  0  0  0
   -3.5236    0.0058   -0.3348 C   0  0  0  0  0  0  0  0  0  0  0  0
   -3.6079    1.4324   -0.5814 N   0  0  0  0  0  0  0  0  0  0  0  0
   -2.7719    2.1253    0.3354 C   0  0  0  0  0  0  0  0  0  0  0  0
   -2.8952    3.2999    0.7468 O   0  0  0  0  0  0  0  0  0  0  0  0
   -1.6939    1.1438    0.7154 C   0  0  0  0  0  0  0  0  0  0  0  0
    5.2510    1.3181    0.9852 H   0  0  0  0  0  0  0  0  0  0  0  0
    5.5095    0.0998   -0.3670 H   0  0  0  0  0  0  0  0  0  0  0  0
    4.4015    1.5271   -0.5873 H   0  0  0  0  0  0  0  0  0  0  0  0
    3.1804    0.5017    1.5606 H   0  0  0  0  0  0  0  0  0  0  0  0
    3.9768   -1.0114    1.0065 H   0  0  0  0  0  0  0  0  0  0  0  0
    2.7097    0.3021   -1.2314 H   0  0  0  0  0  0  0  0  0  0  0  0
    0.1628    0.0318   -1.5199 H   0  0  0  0  0  0  0  0  0  0  0  0
    0.8858   -1.5166   -1.9084 H   0  0  0  0  0  0  0  0  0  0  0  0
   -1.4405   -1.9169   -1.5879 H   0  0  0  0  0  0  0  0  0  0  0  0
   -0.4487   -2.7569   -0.4174 H   0  0  0  0  0  0  0  0  0  0  0  0
   -1.5332   -1.9595    1.2932 H   0  0  0  0  0  0  0  0  0  0  0  0
   -2.8804   -0.3094    1.6138 H   0  0  0  0  0  0  0  0  0  0  0  0
   -3.4274   -0.4927   -1.3131 H   0  0  0  0  0  0  0  0  0  0  0  0
   -4.5026   -0.3045    0.0803 H   0  0  0  0  0  0  0  0  0  0  0  0
   -4.1927    1.9166   -1.3233 H   0  0  0  0  0  0  0  0  0  0  0  0
   -0.8091    1.3173    0.1284 H   0  0  0  0  0  0  0  0  0  0  0  0
   -1.4456    1.4026    1.7679 H   0  0  0  0  0  0  0  0  0  0  0  0
  1  2  1  0
  2  3  1  0
  3  4  1  0
  4  5  2  0
  4  6  1  0
  6  7  1  0
  7  8  1  0
  8  9  1  0
  9 10  1  0
 10 11  1  0
 11 12  1  0
 12 13  2  0
 12 14  1  0
 14  9  1  0
  1 15  1  0
  1 16  1  0
  1 17  1  0
  2 18  1  0
  2 19  1  0
  3 20  1  0
  6 21  1  0
  6 22  1  0
  7 23  1  0
  7 24  1  0
  8 25  1  0
  9 26  1  1
 10 27  1  0
 10 28  1  0
 11 29  1  0
 14 30  1  0
 14 31  1  0
M  END
$$$$

     RDKit          3D

 31 31  0  0  0  0  0  0  0  0999 V2000
    4.7817    0.3324    0.7570 C   0  0  0  0  0  0  0  0  0  0  0  0
    4.5056    0.0093   -0.6896 C   0  0  0  0  0  0  0  0  0  0  0  0
    3.2101   -0.5533   -0.9119 N   0  0  0  0  0  0  0  0  0  0  0  0
    2.0255    0.1802   -0.5649 C   0  0  0  0  0  0  0  0  0  0  0  0
    2.2035    1.3099   -0.0710 O   0  0  0  0  0  0  0  0  0  0  0  0
    0.7202   -0.4460   -0.8145 C   0  0  0  0  0  0  0  0  0  0  0  0
   -0.3969    0.5084   -0.3760 C   0  0  0  0  0  0  0  0  0  0  0  0
   -1.6284   -0.1333   -0.6331 N   0  0  0  0  0  0  0  0  0  0  0  0
   -2.8153    0.5501   -0.3147 C   0  0  2  0  0  0  0  0  0  0  0  0
   -3.0333    0.8825    1.1219 C   0  0  0  0  0  0  0  0  0  0  0  0
   -3.2412   -0.4152    1.7201 N   0  0  0  0  0  0  0  0  0  0  0  0
   -3.9241   -1.1810    0.7337 C   0  0  0  0  0  0  0  0  0  0  0  0
   -4.4112   -2.3247    0.9014 O   0  0  0  0  0  0  0  0  0  0  0  0
   -3.9825   -0.4270   -0.5462 C   0  0  0  0  0  0  0  0  0  0  0  0
    4.7455   -0.5882    1.3827 H   0  0  0  0  0  0  0  0  0  0  0  0
    5.8559    0.6721    0.7972 H   0  0  0  0  0  0  0  0  0  0  0  0
    4.1836    1.1588    1.1573 H   0  0  0  0  0  0  0  0  0  0  0  0
    5.2919   -0.6487   -1.0573 H   0  0  0  0  0  0  0  0  0  0  0  0
    4.5992    0.9892   -1.2440 H   0  0  0  0  0  0  0  0  0  0  0  0
    3.1339   -1.5091   -1.3316 H   0  0  0  0  0  0  0  0  0  0  0  0
    0.5389   -0.7197   -1.8742 H   0  0  0  0  0  0  0  0  0  0  0  0
    0.6381   -1.4035   -0.2375 H   0  0  0  0  0  0  0  0  0  0  0  0
   -0.2470    0.6827    0.7274 H   0  0  0  0  0  0  0  0  0  0  0  0
   -0.2125    1.4496   -0.8793 H   0  0  0  0  0  0  0  0  0  0  0  0
   -1.5783   -1.1076   -0.2158 H   0  0  0  0  0  0  0  0  0  0  0  0
   -2.9498    1.4209   -0.9728 H   0  0  0  0  0  0  0  0  0  0  0  0
   -2.2942    1.5050    1.5952 H   0  0  0  0  0  0  0  0  0  0  0  0
   -4.0279    1.4142    1.1828 H   0  0  0  0  0  0  0  0  0  0  0  0
   -2.9640   -0.7503    2.6661 H   0  0  0  0  0  0  0  0  0  0  0  0
   -4.9085    0.1842   -0.5797 H   0  0  0  0  0  0  0  0  0  0  0  0
   -3.8183   -1.0421   -1.4287 H   0  0  0  0  0  0  0  0  0  0  0  0
  1  2  1  0
  2  3  1  0
  3  4  1  0
  4  5  2  0
  4  6  1  0
  6  7  1  0
  7  8  1  0
  8  9  1  0
  9 10  1  0
 10 11  1  0
 11 12  1  0
 12 13  2  0
 12 14  1  0
 14  9  1  0
  1 15  1  0
  1 16  1  0
  1 17  1  0
  2 18  1  0
  2 19  1  0
  3 20  1  0
  6 21  1  0
  6 22  1  0
  7 23  1  0
  7 24  1  0
  8 25  1  0
  9 26  1  6
 10 27  1  0
 10 28  1  0
 11 29  1  0
 14 30  1  0
 14 31  1  0
M  END
$$$$

     RDKit          3D

 31 31  0  0  0  0  0  0  0  0999 V2000
    4.9117   -1.5253    0.1582 C   0  0  0  0  0  0  0  0  0  0  0  0
    4.5038   -0.5629    1.2287 C   0  0  0  0  0  0  0  0  0  0  0  0
    3.0806   -0.6095    1.5240 N   0  0  0  0  0  0  0  0  0  0  0  0
    2.0913   -0.3341    0.5514 C   0  0  0  0  0  0  0  0  0  0  0  0
    2.4793   -0.0390   -0.6073 O   0  0  0  0  0  0  0  0  0  0  0  0
    0.6371   -0.3912    0.8864 C   0  0  0  0  0  0  0  0  0  0  0  0
   -0.2023   -0.0463   -0.3485 C   0  0  0  0  0  0  0  0  0  0  0  0
   -1.5671   -0.1262    0.0527 N   0  0  0  0  0  0  0  0  0  0  0  0
   -2.5402    0.1533   -0.9383 C   0  0  2  0  0  0  0  0  0  0  0  0
   -2.5169    1.5475   -1.5050 C   0  0  0  0  0  0  0  0  0  0  0  0
   -3.8831    1.6395   -2.0497 N   0  0  0  0  0  0  0  0  0  0  0  0
   -4.7392    0.8106   -1.2836 C   0  0  0  0  0  0  0  0  0  0  0  0
   -5.9642    0.6233   -1.4303 O   0  0  0  0  0  0  0  0  0  0  0  0
   -3.9081    0.1759   -0.2364 C   0  0  0  0  0  0  0  0  0  0  0  0
    5.2312   -0.9939   -0.7591 H   0  0  0  0  0  0  0  0  0  0  0  0
    4.1164   -2.2538   -0.0089 H   0  0  0  0  0  0  0  0  0  0  0  0
    5.8123   -2.1151    0.4906 H   0  0  0  0  0  0  0  0  0  0  0  0
    4.7052    0.4752    0.8681 H   0  0  0  0  0  0  0  0  0  0  0  0
    5.0622   -0.7194    2.1772 H   0  0  0  0  0  0  0  0  0  0  0  0
    2.7411   -0.8523    2.4809 H   0  0  0  0  0  0  0  0  0  0  0  0
    0.4436    0.3317    1.7025 H   0  0  0  0  0  0  0  0  0  0  0  0
    0.3080   -1.3782    1.2255 H   0  0  0  0  0  0  0  0  0  0  0  0
    0.0245   -0.7265   -1.1724 H   0  0  0  0  0  0  0  0  0  0  0  0
    0.0271    0.9884   -0.6729 H   0  0  0  0  0  0  0  0  0  0  0  0
   -1.7854    0.1785    1.0031 H   0  0  0  0  0  0  0  0  0  0  0  0
   -2.5737   -0.5550   -1.7729 H   0  0  0  0  0  0  0  0  0  0  0  0
   -2.4689    2.3207   -0.7128 H   0  0  0  0  0  0  0  0  0  0  0  0
   -1.7967    1.6805   -2.3174 H   0  0  0  0  0  0  0  0  0  0  0  0
   -4.2095    2.2030   -2.8565 H   0  0  0  0  0  0  0  0  0  0  0  0
   -4.2339   -0.8118    0.0803 H   0  0  0  0  0  0  0  0  0  0  0  0
   -3.7862    0.9124    0.5934 H   0  0  0  0  0  0  0  0  0  0  0  0
  1  2  1  0
  2  3  1  0
  3  4  1  0
  4  5  2  0
  4  6  1  0
  6  7  1  0
  7  8  1  0
  8  9  1  0
  9 10  1  0
 10 11  1  0
 11 12  1  0
 12 13  2  0
 12 14  1  0
 14  9  1  0
  1 15  1  0
  1 16  1  0
  1 17  1  0
  2 18  1  0
  2 19  1  0
  3 20  1  0
  6 21  1  0
  6 22  1  0
  7 23  1  0
  7 24  1  0
  8 25  1  0
  9 26  1  6
 10 27  1  0
 10 28  1  0
 11 29  1  0
 14 30  1  0
 14 31  1  0
M  END
$$$$

     RDKit          3D

 31 31  0  0  0  0  0  0  0  0999 V2000
    4.9096    0.5546    0.5231 C   0  0  0  0  0  0  0  0  0  0  0  0
    4.2112    0.3919   -0.8037 C   0  0  0  0  0  0  0  0  0  0  0  0
    2.7994    0.5565   -0.7743 N   0  0  0  0  0  0  0  0  0  0  0  0
    1.9012   -0.2279   -0.0215 C   0  0  0  0  0  0  0  0  0  0  0  0
    2.3187   -1.1389    0.6808 O   0  0  0  0  0  0  0  0  0  0  0  0
    0.4130    0.1095   -0.1249 C   0  0  0  0  0  0  0  0  0  0  0  0
   -0.2830   -0.8840    0.7244 C   0  0  0  0  0  0  0  0  0  0  0  0
   -1.6428   -0.7573    0.8588 N   0  0  0  0  0  0  0  0  0  0  0  0
   -2.6343   -0.9623   -0.0625 C   0  0  2  0  0  0  0  0  0  0  0  0
   -2.7165   -0.0399   -1.2260 C   0  0  0  0  0  0  0  0  0  0  0  0
   -3.0525    1.2210   -0.5417 N   0  0  0  0  0  0  0  0  0  0  0  0
   -3.8457    0.9034    0.5960 C   0  0  0  0  0  0  0  0  0  0  0  0
   -4.3330    1.7291    1.3914 O   0  0  0  0  0  0  0  0  0  0  0  0
   -3.9779   -0.5747    0.6507 C   0  0  0  0  0  0  0  0  0  0  0  0
    6.0148    0.5527    0.2753 H   0  0  0  0  0  0  0  0  0  0  0  0
    4.6976    1.5309    0.9826 H   0  0  0  0  0  0  0  0  0  0  0  0
    4.7689   -0.2698    1.2209 H   0  0  0  0  0  0  0  0  0  0  0  0
    4.4443   -0.6587   -1.1388 H   0  0  0  0  0  0  0  0  0  0  0  0
    4.6661    1.1264   -1.4914 H   0  0  0  0  0  0  0  0  0  0  0  0
    2.3810    1.3271   -1.3607 H   0  0  0  0  0  0  0  0  0  0  0  0
    0.1789   -0.0386   -1.2023 H   0  0  0  0  0  0  0  0  0  0  0  0
    0.2729    1.1513    0.1665 H   0  0  0  0  0  0  0  0  0  0  0  0
    0.2051   -0.9349    1.7644 H   0  0  0  0  0  0  0  0  0  0  0  0
   -0.0462   -1.9457    0.3338 H   0  0  0  0  0  0  0  0  0  0  0  0
   -1.9838   -0.5787    1.8514 H   0  0  0  0  0  0  0  0  0  0  0  0
   -2.7590   -2.0443   -0.3943 H   0  0  0  0  0  0  0  0  0  0  0  0
   -1.8529    0.0149   -1.8686 H   0  0  0  0  0  0  0  0  0  0  0  0
   -3.6157   -0.3076   -1.8809 H   0  0  0  0  0  0  0  0  0  0  0  0
   -2.7379    2.1449   -0.8825 H   0  0  0  0  0  0  0  0  0  0  0  0
   -4.8269   -0.9683    0.0854 H   0  0  0  0  0  0  0  0  0  0  0  0
   -3.8748   -0.9823    1.6685 H   0  0  0  0  0  0  0  0  0  0  0  0
  1  2  1  0
  2  3  1  0
  3  4  1  0
  4  5  2  0
  4  6  1  0
  6  7  1  0
  7  8  1  0
  8  9  1  0
  9 10  1  0
 10 11  1  0
 11 12  1  0
 12 13  2  0
 12 14  1  0
 14  9  1  0
  1 15  1  0
  1 16  1  0
  1 17  1  0
  2 18  1  0
  2 19  1  0
  3 20  1  0
  6 21  1  0
  6 22  1  0
  7 23  1  0
  7 24  1  0
  8 25  1  0
  9 26  1  6
 10 27  1  0
 10 28  1  0
 11 29  1  0
 14 30  1  0
 14 31  1  0
M  END
$$$$

     RDKit          3D

 31 31  0  0  0  0  0  0  0  0999 V2000
    4.9311   -0.2114   -0.8888 C   0  0  0  0  0  0  0  0  0  0  0  0
    4.6622    0.1955    0.5369 C   0  0  0  0  0  0  0  0  0  0  0  0
    3.3817   -0.2423    1.0209 N   0  0  0  0  0  0  0  0  0  0  0  0
    2.1419    0.1523    0.3984 C   0  0  0  0  0  0  0  0  0  0  0  0
    2.1706    0.8980   -0.6105 O   0  0  0  0  0  0  0  0  0  0  0  0
    0.8560   -0.3290    0.9537 C   0  0  0  0  0  0  0  0  0  0  0  0
   -0.2704    0.0060    0.0126 C   0  0  0  0  0  0  0  0  0  0  0  0
   -1.5014   -0.4559    0.6083 N   0  0  0  0  0  0  0  0  0  0  0  0
   -2.5733   -0.3129   -0.3162 C   0  0  2  0  0  0  0  0  0  0  0  0
   -2.8064    1.1100   -0.6837 C   0  0  0  0  0  0  0  0  0  0  0  0
   -4.2664    1.2586   -0.7871 N   0  0  0  0  0  0  0  0  0  0  0  0
   -4.9128    0.0246   -0.4602 C   0  0  0  0  0  0  0  0  0  0  0  0
   -6.0900   -0.2608   -0.7659 O   0  0  0  0  0  0  0  0  0  0  0  0
   -3.9004   -0.7905    0.2899 C   0  0  0  0  0  0  0  0  0  0  0  0
    5.4750    0.6007   -1.4300 H   0  0  0  0  0  0  0  0  0  0  0  0
    3.9618   -0.3532   -1.4011 H   0  0  0  0  0  0  0  0  0  0  0  0
    5.4686   -1.1867   -0.9219 H   0  0  0  0  0  0  0  0  0  0  0  0
    5.4194   -0.2880    1.2229 H   0  0  0  0  0  0  0  0  0  0  0  0
    4.7388    1.3009    0.6838 H   0  0  0  0  0  0  0  0  0  0  0  0
    3.2684   -0.8782    1.8655 H   0  0  0  0  0  0  0  0  0  0  0  0
    0.9090   -1.4293    1.0891 H   0  0  0  0  0  0  0  0  0  0  0  0
    0.6577    0.0937    1.9584 H   0  0  0  0  0  0  0  0  0  0  0  0
   -0.0965   -0.4679   -0.9682 H   0  0  0  0  0  0  0  0  0  0  0  0
   -0.3909    1.0988   -0.1494 H   0  0  0  0  0  0  0  0  0  0  0  0
   -1.3604   -1.4260    0.9818 H   0  0  0  0  0  0  0  0  0  0  0  0
   -2.3912   -0.9400   -1.2280 H   0  0  0  0  0  0  0  0  0  0  0  0
   -2.3638    1.2920   -1.6895 H   0  0  0  0  0  0  0  0  0  0  0  0
   -2.3984    1.8537    0.0402 H   0  0  0  0  0  0  0  0  0  0  0  0
   -4.7244    2.1453   -1.0582 H   0  0  0  0  0  0  0  0  0  0  0  0
   -3.9552   -0.6074    1.3622 H   0  0  0  0  0  0  0  0  0  0  0  0
   -4.0403   -1.8507    0.0879 H   0  0  0  0  0  0  0  0  0  0  0  0
  1  2  1  0
  2  3  1  0
  3  4  1  0
  4  5  2  0
  4  6  1  0
  6  7  1  0
  7  8  1  0
  8  9  1  0
  9 10  1  0
 10 11  1  0
 11 12  1  0
 12 13  2  0
 12 14  1  0
 14  9  1  0
  1 15  1  0
  1 16  1  0
  1 17  1  0
  2 18  1  0
  2 19  1  0
  3 20  1  0
  6 21  1  0
  6 22  1  0
  7 23  1  0
  7 24  1  0
  8 25  1  0
  9 26  1  6
 10 27  1  0
 10 28  1  0
 11 29  1  0
 14 30  1  0
 14 31  1  0
M  END
$$$$
