
     RDKit          3D

 24 25  0  0  0  0  0  0  0  0999 V2000
    4.2384    0.6343   -0.3646 N   0  0  0  0  0  0  0  0  0  0  0  0
    3.2429   -0.5674    0.3642 S   0  0  0  0  0  6  0  0  0  0  0  0
    3.8023   -1.9318    0.2113 O   0  0  0  0  0  0  0  0  0  0  0  0
    3.1031   -0.2298    1.8386 O   0  0  0  0  0  0  0  0  0  0  0  0
    1.6870   -0.4993   -0.4085 N   0  0  0  0  0  0  0  0  0  0  0  0
    0.8899    0.4412    0.3481 C   0  0  0  0  0  0  0  0  0  0  0  0
   -0.5044    0.6049   -0.2137 C   0  0  1  0  0  0  0  0  0  0  0  0
   -1.3336   -0.5967   -0.2662 C   0  0  2  0  0  0  0  0  0  0  0  0
   -2.6304   -0.5536   -1.0829 C   0  0  0  0  0  0  0  0  0  0  0  0
   -3.5802   -0.0766   -0.0005 C   0  0  0  0  0  0  0  0  0  0  0  0
   -2.8635    0.9664    0.5457 O   0  0  0  0  0  0  0  0  0  0  0  0
   -1.6116    0.4545    0.7751 C   0  0  2  0  0  0  0  0  0  0  0  0
    4.3153    0.4669   -1.3899 H   0  0  0  0  0  0  0  0  0  0  0  0
    3.7645    1.5617   -0.1829 H   0  0  0  0  0  0  0  0  0  0  0  0
    1.7674   -0.2405   -1.4038 H   0  0  0  0  0  0  0  0  0  0  0  0
    1.4143    1.4308    0.2591 H   0  0  0  0  0  0  0  0  0  0  0  0
    0.8581    0.1198    1.4017 H   0  0  0  0  0  0  0  0  0  0  0  0
   -0.6112    1.3504   -1.0308 H   0  0  0  0  0  0  0  0  0  0  0  0
   -1.0227   -1.5698    0.1454 H   0  0  0  0  0  0  0  0  0  0  0  0
   -2.4818    0.2170   -1.8657 H   0  0  0  0  0  0  0  0  0  0  0  0
   -2.8931   -1.5448   -1.4754 H   0  0  0  0  0  0  0  0  0  0  0  0
   -3.6198   -0.8928    0.7583 H   0  0  0  0  0  0  0  0  0  0  0  0
   -4.5669    0.1981   -0.3926 H   0  0  0  0  0  0  0  0  0  0  0  0
   -1.3640    0.2572    1.8340 H   0  0  0  0  0  0  0  0  0  0  0  0
  1  2  1  0
  2  3  2  0
  2  4  2  0
  2  5  1  0
  5  6  1  0
  6  7  1  0
  7  8  1  0
  8  9  1  0
  9 10  1  0
 10 11  1  0
 11 12  1  0
 12  7  1  0
 12  8  1  0
  1 13  1  0
  1 14  1  0
  5 15  1  0
  6 16  1  0
  6 17  1  0
  7 18  1  6
  8 19  1  1
  9 20  1  0
  9 21  1  0
 10 22  1  0
 10 23  1  0
 12 24  1  1
M  END
$$$$

     RDKit          3D

 24 25  0  0  0  0  0  0  0  0999 V2000
    4.2274   -0.5227   -0.1857 N   0  0  0  0  0  0  0  0  0  0  0  0
    3.1320    0.6420   -0.8015 S   0  0  0  0  0  6  0  0  0  0  0  0
    3.1916    1.8760    0.0847 O   0  0  0  0  0  0  0  0  0  0  0  0
    3.5785    1.0286   -2.1803 O   0  0  0  0  0  0  0  0  0  0  0  0
    1.5012    0.0357   -0.8483 N   0  0  0  0  0  0  0  0  0  0  0  0
    0.8942    0.3564    0.3997 C   0  0  0  0  0  0  0  0  0  0  0  0
   -0.5250   -0.0913    0.5440 C   0  0  1  0  0  0  0  0  0  0  0  0
   -1.5255    0.4373   -0.4224 C   0  0  2  0  0  0  0  0  0  0  0  0
   -2.9437    0.5309    0.0953 C   0  0  0  0  0  0  0  0  0  0  0  0
   -3.1732   -0.8498    0.6465 C   0  0  0  0  0  0  0  0  0  0  0  0
   -2.3003   -1.7106    0.0452 O   0  0  0  0  0  0  0  0  0  0  0  0
   -1.1936   -1.0016   -0.3748 C   0  0  2  0  0  0  0  0  0  0  0  0
    4.0134   -1.4717   -0.5278 H   0  0  0  0  0  0  0  0  0  0  0  0
    4.3252   -0.5100    0.8442 H   0  0  0  0  0  0  0  0  0  0  0  0
    1.0392    0.4300   -1.6733 H   0  0  0  0  0  0  0  0  0  0  0  0
    1.5351   -0.0238    1.2213 H   0  0  0  0  0  0  0  0  0  0  0  0
    0.8896    1.4801    0.4901 H   0  0  0  0  0  0  0  0  0  0  0  0
   -0.8448   -0.1653    1.6246 H   0  0  0  0  0  0  0  0  0  0  0  0
   -1.2395    0.9792   -1.3226 H   0  0  0  0  0  0  0  0  0  0  0  0
   -2.9332    1.2716    0.9250 H   0  0  0  0  0  0  0  0  0  0  0  0
   -3.6581    0.8228   -0.6882 H   0  0  0  0  0  0  0  0  0  0  0  0
   -4.2181   -1.1669    0.3983 H   0  0  0  0  0  0  0  0  0  0  0  0
   -3.0915   -0.9109    1.7438 H   0  0  0  0  0  0  0  0  0  0  0  0
   -0.6810   -1.4659   -1.2559 H   0  0  0  0  0  0  0  0  0  0  0  0
  1  2  1  0
  2  3  2  0
  2  4  2  0
  2  5  1  0
  5  6  1  0
  6  7  1  0
  7  8  1  0
  8  9  1  0
  9 10  1  0
 10 11  1  0
 11 12  1  0
 12  7  1  0
 12  8  1  0
  1 13  1  0
  1 14  1  0
  5 15  1  0
  6 16  1  0
  6 17  1  0
  7 18  1  1
  8 19  1  6
  9 20  1  0
  9 21  1  0
 10 22  1  0
 10 23  1  0
 12 24  1  6
M  END
$$$$

     RDKit          3D

 24 25  0  0  0  0  0  0  0  0999 V2000
    3.6290   -0.3692    1.4716 N   0  0  0  0  0  0  0  0  0  0  0  0
    3.1885    0.7160    0.1768 S   0  0  0  0  0  6  0  0  0  0  0  0
    3.6202    0.1575   -1.1493 O   0  0  0  0  0  0  0  0  0  0  0  0
    3.7888    2.0731    0.4209 O   0  0  0  0  0  0  0  0  0  0  0  0
    1.4679    0.8312    0.1958 N   0  0  0  0  0  0  0  0  0  0  0  0
    0.9103   -0.1935   -0.6561 C   0  0  0  0  0  0  0  0  0  0  0  0
   -0.5817   -0.1764   -0.7064 C   0  0  1  0  0  0  0  0  0  0  0  0
   -1.3029   -0.3717    0.5644 C   0  0  2  0  0  0  0  0  0  0  0  0
   -2.7290   -0.8678    0.5817 C   0  0  0  0  0  0  0  0  0  0  0  0
   -3.3347   -0.1012   -0.5762 C   0  0  0  0  0  0  0  0  0  0  0  0
   -2.6829    1.1167   -0.5880 O   0  0  0  0  0  0  0  0  0  0  0  0
   -1.3881    0.9202   -0.1621 C   0  0  2  0  0  0  0  0  0  0  0  0
    4.6681   -0.4430    1.5314 H   0  0  0  0  0  0  0  0  0  0  0  0
    3.2235   -1.3006    1.2028 H   0  0  0  0  0  0  0  0  0  0  0  0
    1.1314    1.7805   -0.0693 H   0  0  0  0  0  0  0  0  0  0  0  0
    1.3417   -0.0810   -1.6788 H   0  0  0  0  0  0  0  0  0  0  0  0
    1.2861   -1.1709   -0.2715 H   0  0  0  0  0  0  0  0  0  0  0  0
   -1.0280   -0.7092   -1.5871 H   0  0  0  0  0  0  0  0  0  0  0  0
   -0.7871   -0.4374    1.5416 H   0  0  0  0  0  0  0  0  0  0  0  0
   -2.8154   -1.9492    0.3818 H   0  0  0  0  0  0  0  0  0  0  0  0
   -3.1799   -0.5637    1.5414 H   0  0  0  0  0  0  0  0  0  0  0  0
   -3.1171   -0.6650   -1.5018 H   0  0  0  0  0  0  0  0  0  0  0  0
   -4.4250   -0.0098   -0.3720 H   0  0  0  0  0  0  0  0  0  0  0  0
   -0.8837    1.8146    0.2387 H   0  0  0  0  0  0  0  0  0  0  0  0
  1  2  1  0
  2  3  2  0
  2  4  2  0
  2  5  1  0
  5  6  1  0
  6  7  1  0
  7  8  1  0
  8  9  1  0
  9 10  1  0
 10 11  1  0
 11 12  1  0
 12  7  1  0
 12  8  1  0
  1 13  1  0
  1 14  1  0
  5 15  1  0
  6 16  1  0
  6 17  1  0
  7 18  1  6
  8 19  1  1
  9 20  1  0
  9 21  1  0
 10 22  1  0
 10 23  1  0
 12 24  1  1
M  END
$$$$

     RDKit          3D

 24 25  0  0  0  0  0  0  0  0999 V2000
    3.4599    0.0989   -1.1115 N   0  0  0  0  0  0  0  0  0  0  0  0
    3.2461   -0.8460    0.3399 S   0  0  0  0  0  6  0  0  0  0  0  0
    4.3634   -0.5386    1.2595 O   0  0  0  0  0  0  0  0  0  0  0  0
    3.3531   -2.3145   -0.1267 O   0  0  0  0  0  0  0  0  0  0  0  0
    1.7274   -0.6019    1.0144 N   0  0  0  0  0  0  0  0  0  0  0  0
    0.9535    0.4387    0.4000 C   0  0  0  0  0  0  0  0  0  0  0  0
   -0.5080    0.0991    0.4480 C   0  0  1  0  0  0  0  0  0  0  0  0
   -1.4508    1.0734   -0.1026 C   0  0  2  0  0  0  0  0  0  0  0  0
   -2.8997    0.8629    0.2803 C   0  0  0  0  0  0  0  0  0  0  0  0
   -3.0663   -0.6169    0.0059 C   0  0  0  0  0  0  0  0  0  0  0  0
   -2.2568   -0.8810   -1.0802 O   0  0  0  0  0  0  0  0  0  0  0  0
   -1.1104   -0.1750   -0.8931 C   0  0  2  0  0  0  0  0  0  0  0  0
    2.7560   -0.1402   -1.8077 H   0  0  0  0  0  0  0  0  0  0  0  0
    3.5149    1.1098   -0.8694 H   0  0  0  0  0  0  0  0  0  0  0  0
    1.1672   -1.4492    1.1128 H   0  0  0  0  0  0  0  0  0  0  0  0
    1.3592    0.6734   -0.5816 H   0  0  0  0  0  0  0  0  0  0  0  0
    1.1196    1.3773    1.0162 H   0  0  0  0  0  0  0  0  0  0  0  0
   -0.8127   -0.4955    1.3225 H   0  0  0  0  0  0  0  0  0  0  0  0
   -1.1367    2.0064   -0.6012 H   0  0  0  0  0  0  0  0  0  0  0  0
   -2.9728    1.0356    1.3650 H   0  0  0  0  0  0  0  0  0  0  0  0
   -3.5796    1.4920   -0.3095 H   0  0  0  0  0  0  0  0  0  0  0  0
   -4.1084   -0.9163   -0.1580 H   0  0  0  0  0  0  0  0  0  0  0  0
   -2.6724   -1.1927    0.8552 H   0  0  0  0  0  0  0  0  0  0  0  0
   -0.4458   -0.0998   -1.7780 H   0  0  0  0  0  0  0  0  0  0  0  0
  1  2  1  0
  2  3  2  0
  2  4  2  0
  2  5  1  0
  5  6  1  0
  6  7  1  0
  7  8  1  0
  8  9  1  0
  9 10  1  0
 10 11  1  0
 11 12  1  0
 12  7  1  0
 12  8  1  0
  1 13  1  0
  1 14  1  0
  5 15  1  0
  6 16  1  0
  6 17  1  0
  7 18  1  1
  8 19  1  6
  9 20  1  0
  9 21  1  0
 10 22  1  0
 10 23  1  0
 12 24  1  6
M  END
$$$$

     RDKit          3D

 24 25  0  0  0  0  0  0  0  0999 V2000
    4.0342    0.9583    0.2791 N   0  0  0  0  0  0  0  0  0  0  0  0
    3.4323   -0.6418    0.0941 S   0  0  0  0  0  6  0  0  0  0  0  0
    4.3121   -1.3758   -0.8736 O   0  0  0  0  0  0  0  0  0  0  0  0
    3.3388   -1.3575    1.4117 O   0  0  0  0  0  0  0  0  0  0  0  0
    1.8416   -0.5841   -0.5839 N   0  0  0  0  0  0  0  0  0  0  0  0
    0.8300   -0.5123    0.4399 C   0  0  0  0  0  0  0  0  0  0  0  0
   -0.5210   -0.4650   -0.2045 C   0  0  1  0  0  0  0  0  0  0  0  0
   -1.6829   -0.3895    0.6827 C   0  0  2  0  0  0  0  0  0  0  0  0
   -3.0953   -0.6085    0.1848 C   0  0  0  0  0  0  0  0  0  0  0  0
   -3.4102    0.7874   -0.3605 C   0  0  0  0  0  0  0  0  0  0  0  0
   -2.2436    1.0640   -1.0533 O   0  0  0  0  0  0  0  0  0  0  0  0
   -1.2430    0.8145   -0.1364 C   0  0  2  0  0  0  0  0  0  0  0  0
    3.4678    1.6272   -0.2673 H   0  0  0  0  0  0  0  0  0  0  0  0
    5.0526    1.0381    0.1349 H   0  0  0  0  0  0  0  0  0  0  0  0
    1.7836    0.2736   -1.1800 H   0  0  0  0  0  0  0  0  0  0  0  0
    0.9377   -1.3862    1.1151 H   0  0  0  0  0  0  0  0  0  0  0  0
    1.0101    0.4038    1.0438 H   0  0  0  0  0  0  0  0  0  0  0  0
   -0.6296   -1.0372   -1.1618 H   0  0  0  0  0  0  0  0  0  0  0  0
   -1.6051   -0.3188    1.7853 H   0  0  0  0  0  0  0  0  0  0  0  0
   -3.1518   -1.3777   -0.6139 H   0  0  0  0  0  0  0  0  0  0  0  0
   -3.7917   -0.8439    0.9947 H   0  0  0  0  0  0  0  0  0  0  0  0
   -3.4527    1.4564    0.5274 H   0  0  0  0  0  0  0  0  0  0  0  0
   -4.3063    0.8012   -0.9771 H   0  0  0  0  0  0  0  0  0  0  0  0
   -0.9077    1.6737    0.4599 H   0  0  0  0  0  0  0  0  0  0  0  0
  1  2  1  0
  2  3  2  0
  2  4  2  0
  2  5  1  0
  5  6  1  0
  6  7  1  0
  7  8  1  0
  8  9  1  0
  9 10  1  0
 10 11  1  0
 11 12  1  0
 12  7  1  0
 12  8  1  0
  1 13  1  0
  1 14  1  0
  5 15  1  0
  6 16  1  0
  6 17  1  0
  7 18  1  6
  8 19  1  1
  9 20  1  0
  9 21  1  0
 10 22  1  0
 10 23  1  0
 12 24  1  1
M  END
$$$$

     RDKit          3D

 24 25  0  0  0  0  0  0  0  0999 V2000
    4.1621    0.2561    0.4584 N   0  0  0  0  0  0  0  0  0  0  0  0
    3.3037   -0.7470   -0.6482 S   0  0  0  0  0  6  0  0  0  0  0  0
    3.9496   -2.1051   -0.7231 O   0  0  0  0  0  0  0  0  0  0  0  0
    3.2989   -0.1294   -2.0075 O   0  0  0  0  0  0  0  0  0  0  0  0
    1.6932   -0.9410   -0.1173 N   0  0  0  0  0  0  0  0  0  0  0  0
    0.8439    0.1133   -0.6793 C   0  0  0  0  0  0  0  0  0  0  0  0
   -0.5762   -0.0602   -0.2093 C   0  0  1  0  0  0  0  0  0  0  0  0
   -1.5821    0.9124   -0.6740 C   0  0  2  0  0  0  0  0  0  0  0  0
   -2.8459    1.0023    0.1701 C   0  0  0  0  0  0  0  0  0  0  0  0
   -3.2350   -0.4387    0.3035 C   0  0  0  0  0  0  0  0  0  0  0  0
   -2.7785   -1.0766   -0.8243 O   0  0  0  0  0  0  0  0  0  0  0  0
   -1.5644   -0.5411   -1.1742 C   0  0  2  0  0  0  0  0  0  0  0  0
    4.5398    1.1039    0.0162 H   0  0  0  0  0  0  0  0  0  0  0  0
    3.6338    0.4449    1.3235 H   0  0  0  0  0  0  0  0  0  0  0  0
    1.5934   -1.0197    0.9081 H   0  0  0  0  0  0  0  0  0  0  0  0
    1.2137    1.1176   -0.3538 H   0  0  0  0  0  0  0  0  0  0  0  0
    0.8677    0.0286   -1.7659 H   0  0  0  0  0  0  0  0  0  0  0  0
   -0.6408   -0.3710    0.8628 H   0  0  0  0  0  0  0  0  0  0  0  0
   -1.3875    1.6724   -1.4316 H   0  0  0  0  0  0  0  0  0  0  0  0
   -2.5184    1.3521    1.1742 H   0  0  0  0  0  0  0  0  0  0  0  0
   -3.6115    1.6443   -0.2781 H   0  0  0  0  0  0  0  0  0  0  0  0
   -2.7557   -0.9110    1.1827 H   0  0  0  0  0  0  0  0  0  0  0  0
   -4.3216   -0.5994    0.4144 H   0  0  0  0  0  0  0  0  0  0  0  0
   -1.2823   -0.7074   -2.2358 H   0  0  0  0  0  0  0  0  0  0  0  0
  1  2  1  0
  2  3  2  0
  2  4  2  0
  2  5  1  0
  5  6  1  0
  6  7  1  0
  7  8  1  0
  8  9  1  0
  9 10  1  0
 10 11  1  0
 11 12  1  0
 12  7  1  0
 12  8  1  0
  1 13  1  0
  1 14  1  0
  5 15  1  0
  6 16  1  0
  6 17  1  0
  7 18  1  1
  8 19  1  6
  9 20  1  0
  9 21  1  0
 10 22  1  0
 10 23  1  0
 12 24  1  6
M  END
$$$$

     RDKit          3D

 24 25  0  0  0  0  0  0  0  0999 V2000
   -3.4864    1.2793    0.0469 N   0  0  0  0  0  0  0  0  0  0  0  0
   -2.9287   -0.2209    0.6484 S   0  0  0  0  0  6  0  0  0  0  0  0
   -2.1806   -0.0249    1.9533 O   0  0  0  0  0  0  0  0  0  0  0  0
   -4.1530   -1.0309    1.0204 O   0  0  0  0  0  0  0  0  0  0  0  0
   -2.0104   -1.1736   -0.4480 N   0  0  0  0  0  0  0  0  0  0  0  0
   -0.9188   -0.4448   -1.0192 C   0  0  0  0  0  0  0  0  0  0  0  0
    0.1962   -0.2001   -0.0279 C   0  0  1  0  0  0  0  0  0  0  0  0
    1.5056   -0.8212   -0.0835 C   0  0  2  0  0  0  0  0  0  0  0  0
    2.4756   -0.5928    1.0460 C   0  0  0  0  0  0  0  0  0  0  0  0
    3.1826    0.6725    0.5753 C   0  0  0  0  0  0  0  0  0  0  0  0
    2.0922    1.4312    0.1375 O   0  0  0  0  0  0  0  0  0  0  0  0
    1.3704    0.5570   -0.6597 C   0  0  2  0  0  0  0  0  0  0  0  0
   -2.6964    1.8841   -0.2386 H   0  0  0  0  0  0  0  0  0  0  0  0
   -3.9968    1.7499    0.8375 H   0  0  0  0  0  0  0  0  0  0  0  0
   -2.6945   -1.3118   -1.2901 H   0  0  0  0  0  0  0  0  0  0  0  0
   -0.4273   -1.2361   -1.7295 H   0  0  0  0  0  0  0  0  0  0  0  0
   -1.1113    0.3934   -1.6506 H   0  0  0  0  0  0  0  0  0  0  0  0
   -0.0865    0.2466    0.9780 H   0  0  0  0  0  0  0  0  0  0  0  0
    1.7340   -1.6093   -0.8147 H   0  0  0  0  0  0  0  0  0  0  0  0
    3.2458   -1.3883    1.1048 H   0  0  0  0  0  0  0  0  0  0  0  0
    1.9887   -0.4624    2.0252 H   0  0  0  0  0  0  0  0  0  0  0  0
    3.7513    1.1638    1.3763 H   0  0  0  0  0  0  0  0  0  0  0  0
    3.7762    0.4180   -0.3144 H   0  0  0  0  0  0  0  0  0  0  0  0
    1.3723    0.7214   -1.7446 H   0  0  0  0  0  0  0  0  0  0  0  0
  1  2  1  0
  2  3  2  0
  2  4  2  0
  2  5  1  0
  5  6  1  0
  6  7  1  0
  7  8  1  0
  8  9  1  0
  9 10  1  0
 10 11  1  0
 11 12  1  0
 12  7  1  0
 12  8  1  0
  1 13  1  0
  1 14  1  0
  5 15  1  0
  6 16  1  0
  6 17  1  0
  7 18  1  1
  8 19  1  6
  9 20  1  0
  9 21  1  0
 10 22  1  0
 10 23  1  0
 12 24  1  6
M  END
$$$$

     RDKit          3D

 24 25  0  0  0  0  0  0  0  0999 V2000
    4.4692    0.1406   -0.5194 N   0  0  0  0  0  0  0  0  0  0  0  0
    3.0505   -0.7290   -0.1481 S   0  0  0  0  0  6  0  0  0  0  0  0
    3.4342   -1.8805    0.7729 O   0  0  0  0  0  0  0  0  0  0  0  0
    2.3966   -1.2884   -1.4000 O   0  0  0  0  0  0  0  0  0  0  0  0
    1.9341    0.2793    0.6873 N   0  0  0  0  0  0  0  0  0  0  0  0
    0.9062    0.7822   -0.1893 C   0  0  0  0  0  0  0  0  0  0  0  0
   -0.4358    0.1210    0.1301 C   0  0  1  0  0  0  0  0  0  0  0  0
   -1.6405    0.8257   -0.3375 C   0  0  2  0  0  0  0  0  0  0  0  0
   -2.9954    0.5097    0.2325 C   0  0  0  0  0  0  0  0  0  0  0  0
   -3.2232   -0.9275   -0.1111 C   0  0  0  0  0  0  0  0  0  0  0  0
   -2.1169   -1.4199   -0.7525 O   0  0  0  0  0  0  0  0  0  0  0  0
   -1.2491   -0.3958   -1.0384 C   0  0  2  0  0  0  0  0  0  0  0  0
    4.2683    1.1451   -0.6924 H   0  0  0  0  0  0  0  0  0  0  0  0
    5.1168    0.1187    0.3093 H   0  0  0  0  0  0  0  0  0  0  0  0
    1.5149   -0.1700    1.4943 H   0  0  0  0  0  0  0  0  0  0  0  0
    1.1435    0.6329   -1.2286 H   0  0  0  0  0  0  0  0  0  0  0  0
    0.7343    1.8669    0.0916 H   0  0  0  0  0  0  0  0  0  0  0  0
   -0.5113   -0.4301    1.0736 H   0  0  0  0  0  0  0  0  0  0  0  0
   -1.5157    1.8020   -0.8497 H   0  0  0  0  0  0  0  0  0  0  0  0
   -3.7557    1.1405   -0.2642 H   0  0  0  0  0  0  0  0  0  0  0  0
   -3.0792    0.7183    1.3226 H   0  0  0  0  0  0  0  0  0  0  0  0
   -4.0971   -1.0408   -0.7893 H   0  0  0  0  0  0  0  0  0  0  0  0
   -3.4656   -1.4956    0.8136 H   0  0  0  0  0  0  0  0  0  0  0  0
   -0.8831   -0.3052   -2.0705 H   0  0  0  0  0  0  0  0  0  0  0  0
  1  2  1  0
  2  3  2  0
  2  4  2  0
  2  5  1  0
  5  6  1  0
  6  7  1  0
  7  8  1  0
  8  9  1  0
  9 10  1  0
 10 11  1  0
 11 12  1  0
 12  7  1  0
 12  8  1  0
  1 13  1  0
  1 14  1  0
  5 15  1  0
  6 16  1  0
  6 17  1  0
  7 18  1  1
  8 19  1  6
  9 20  1  0
  9 21  1  0
 10 22  1  0
 10 23  1  0
 12 24  1  6
M  END
$$$$
