
     RDKit          3D

 28 28  0  0  0  0  0  0  0  0999 V2000
   -3.4594   -1.8544   -0.7256 C   0  0  0  0  0  0  0  0  0  0  0  0
   -3.2667   -0.4548   -0.3909 N   0  0  0  0  0  0  0  0  0  0  0  0
   -4.1137    0.4729   -0.0097 N   0  0  0  0  0  0  0  0  0  0  0  0
   -3.5423    1.6627    0.1777 C   0  0  0  0  0  0  0  0  0  0  0  0
   -2.1907    1.4367   -0.1456 C   0  0  0  0  0  0  0  0  0  0  0  0
   -2.0200    0.1229   -0.5021 C   0  0  0  0  0  0  0  0  0  0  0  0
   -0.7871   -0.6209   -0.7661 C   0  0  0  0  0  0  0  0  0  0  0  0
    0.1781   -0.4607    0.4367 C   0  0  0  0  0  0  0  0  0  0  0  0
    1.0573    0.5276    0.0593 N   0  0  0  0  0  0  0  0  0  0  0  0
    1.9658    0.1058   -0.7986 O   0  0  0  0  0  0  0  0  0  0  0  0
    3.0097   -0.5684   -0.1959 C   0  0  0  0  0  0  0  0  0  0  0  0
    3.8002    0.6834    0.1933 C   0  0  0  0  0  0  0  0  0  0  0  0
    5.0676    0.9979   -0.2095 N   0  0  0  0  0  0  0  0  0  0  0  0
    3.1257    1.4587    0.9683 O   0  0  0  0  0  0  0  0  0  0  0  0
   -2.8488   -2.4662   -0.0272 H   0  0  0  0  0  0  0  0  0  0  0  0
   -4.5368   -2.1354   -0.6535 H   0  0  0  0  0  0  0  0  0  0  0  0
   -3.1158   -2.1004   -1.7521 H   0  0  0  0  0  0  0  0  0  0  0  0
   -3.9409    2.6091    0.5011 H   0  0  0  0  0  0  0  0  0  0  0  0
   -1.4187    2.1717   -0.0580 H   0  0  0  0  0  0  0  0  0  0  0  0
   -0.2819   -0.1436   -1.6700 H   0  0  0  0  0  0  0  0  0  0  0  0
   -0.8491   -1.6724   -0.9808 H   0  0  0  0  0  0  0  0  0  0  0  0
   -0.5672    0.0868    1.2309 H   0  0  0  0  0  0  0  0  0  0  0  0
    0.4824   -1.3406    0.8695 H   0  0  0  0  0  0  0  0  0  0  0  0
    0.7713    1.4654   -0.2025 H   0  0  0  0  0  0  0  0  0  0  0  0
    3.6466   -1.0647   -1.0177 H   0  0  0  0  0  0  0  0  0  0  0  0
    2.8096   -1.2472    0.5939 H   0  0  0  0  0  0  0  0  0  0  0  0
    5.8140    0.3331   -0.2571 H   0  0  0  0  0  0  0  0  0  0  0  0
    5.2108    1.9950   -0.5662 H   0  0  0  0  0  0  0  0  0  0  0  0
  1  2  1  0
  2  3  1  0
  3  4  2  0
  4  5  1  0
  5  6  2  0
  6  7  1  0
  7  8  1  0
  8  9  1  0
  9 10  1  0
 10 11  1  0
 11 12  1  0
 12 13  1  0
 12 14  2  0
  6  2  1  0
  1 15  1  0
  1 16  1  0
  1 17  1  0
  4 18  1  0
  5 19  1  0
  7 20  1  0
  7 21  1  0
  8 22  1  0
  8 23  1  0
  9 24  1  0
 11 25  1  0
 11 26  1  0
 13 27  1  0
 13 28  1  0
M  END
$$$$

     RDKit          3D

 28 28  0  0  0  0  0  0  0  0999 V2000
   -2.6908    1.8997    0.1679 C   0  0  0  0  0  0  0  0  0  0  0  0
   -2.7158    0.6608   -0.5848 N   0  0  0  0  0  0  0  0  0  0  0  0
   -3.3194    0.4432   -1.7298 N   0  0  0  0  0  0  0  0  0  0  0  0
   -3.1358   -0.8187   -2.1430 C   0  0  0  0  0  0  0  0  0  0  0  0
   -2.3621   -1.4253   -1.1834 C   0  0  0  0  0  0  0  0  0  0  0  0
   -2.1126   -0.4800   -0.2196 C   0  0  0  0  0  0  0  0  0  0  0  0
   -1.3083   -0.7365    0.9927 C   0  0  0  0  0  0  0  0  0  0  0  0
    0.1593   -0.4480    0.7924 C   0  0  0  0  0  0  0  0  0  0  0  0
    0.6604   -1.2960   -0.2697 N   0  0  0  0  0  0  0  0  0  0  0  0
    1.9537   -1.1214   -0.5298 O   0  0  0  0  0  0  0  0  0  0  0  0
    2.4892    0.0569   -0.0706 C   0  0  0  0  0  0  0  0  0  0  0  0
    3.9329    0.0845   -0.4469 C   0  0  0  0  0  0  0  0  0  0  0  0
    4.7736    1.1813   -0.1119 N   0  0  0  0  0  0  0  0  0  0  0  0
    4.4767   -0.8683   -1.0824 O   0  0  0  0  0  0  0  0  0  0  0  0
   -3.6536    2.4431    0.0815 H   0  0  0  0  0  0  0  0  0  0  0  0
   -2.5960    1.6274    1.2462 H   0  0  0  0  0  0  0  0  0  0  0  0
   -1.8269    2.4992   -0.1871 H   0  0  0  0  0  0  0  0  0  0  0  0
   -3.5403   -1.2179   -3.0555 H   0  0  0  0  0  0  0  0  0  0  0  0
   -2.0246   -2.4732   -1.2136 H   0  0  0  0  0  0  0  0  0  0  0  0
   -1.6479   -0.0845    1.8289 H   0  0  0  0  0  0  0  0  0  0  0  0
   -1.4289   -1.7858    1.3626 H   0  0  0  0  0  0  0  0  0  0  0  0
    0.6690   -0.6544    1.7518 H   0  0  0  0  0  0  0  0  0  0  0  0
    0.2650    0.6082    0.5168 H   0  0  0  0  0  0  0  0  0  0  0  0
    0.3660   -2.2777   -0.1823 H   0  0  0  0  0  0  0  0  0  0  0  0
    2.4198    0.1232    1.0194 H   0  0  0  0  0  0  0  0  0  0  0  0
    2.0160    0.9101   -0.5974 H   0  0  0  0  0  0  0  0  0  0  0  0
    5.2945    1.1562    0.7918 H   0  0  0  0  0  0  0  0  0  0  0  0
    4.8869    1.9937   -0.7235 H   0  0  0  0  0  0  0  0  0  0  0  0
  1  2  1  0
  2  3  1  0
  3  4  2  0
  4  5  1  0
  5  6  2  0
  6  7  1  0
  7  8  1  0
  8  9  1  0
  9 10  1  0
 10 11  1  0
 11 12  1  0
 12 13  1  0
 12 14  2  0
  6  2  1  0
  1 15  1  0
  1 16  1  0
  1 17  1  0
  4 18  1  0
  5 19  1  0
  7 20  1  0
  7 21  1  0
  8 22  1  0
  8 23  1  0
  9 24  1  0
 11 25  1  0
 11 26  1  0
 13 27  1  0
 13 28  1  0
M  END
$$$$

     RDKit          3D

 28 28  0  0  0  0  0  0  0  0999 V2000
   -3.1510   -1.8652    0.4415 C   0  0  0  0  0  0  0  0  0  0  0  0
   -2.8819   -0.7626   -0.4767 N   0  0  0  0  0  0  0  0  0  0  0  0
   -3.3512   -0.6270   -1.7058 N   0  0  0  0  0  0  0  0  0  0  0  0
   -2.9091    0.5001   -2.2734 C   0  0  0  0  0  0  0  0  0  0  0  0
   -2.1040    1.1084   -1.3213 C   0  0  0  0  0  0  0  0  0  0  0  0
   -2.1080    0.2933   -0.2092 C   0  0  0  0  0  0  0  0  0  0  0  0
   -1.3618    0.5807    1.0533 C   0  0  0  0  0  0  0  0  0  0  0  0
    0.0272   -0.0150    0.9910 C   0  0  0  0  0  0  0  0  0  0  0  0
    0.7348    0.5586   -0.1162 N   0  0  0  0  0  0  0  0  0  0  0  0
    1.9737    0.1074   -0.2699 O   0  0  0  0  0  0  0  0  0  0  0  0
    2.9178    0.8209    0.4644 C   0  0  0  0  0  0  0  0  0  0  0  0
    4.2757    0.2686    0.2494 C   0  0  0  0  0  0  0  0  0  0  0  0
    4.5156   -0.8346   -0.5984 N   0  0  0  0  0  0  0  0  0  0  0  0
    5.2443    0.8065    0.8465 O   0  0  0  0  0  0  0  0  0  0  0  0
   -4.1286   -2.3248    0.2270 H   0  0  0  0  0  0  0  0  0  0  0  0
   -2.3901   -2.6744    0.2825 H   0  0  0  0  0  0  0  0  0  0  0  0
   -3.1374   -1.5254    1.4909 H   0  0  0  0  0  0  0  0  0  0  0  0
   -3.1285    0.8636   -3.2607 H   0  0  0  0  0  0  0  0  0  0  0  0
   -1.5851    2.0485   -1.4611 H   0  0  0  0  0  0  0  0  0  0  0  0
   -1.3496    1.6835    1.1737 H   0  0  0  0  0  0  0  0  0  0  0  0
   -1.9511    0.1278    1.8835 H   0  0  0  0  0  0  0  0  0  0  0  0
    0.5226    0.1405    1.9593 H   0  0  0  0  0  0  0  0  0  0  0  0
   -0.0972   -1.1042    0.8405 H   0  0  0  0  0  0  0  0  0  0  0  0
    0.6043    1.5728   -0.2412 H   0  0  0  0  0  0  0  0  0  0  0  0
    2.6661    0.9320    1.5184 H   0  0  0  0  0  0  0  0  0  0  0  0
    2.9278    1.8586    0.0225 H   0  0  0  0  0  0  0  0  0  0  0  0
    4.9388   -1.7280   -0.2391 H   0  0  0  0  0  0  0  0  0  0  0  0
    4.2858   -0.8110   -1.6065 H   0  0  0  0  0  0  0  0  0  0  0  0
  1  2  1  0
  2  3  1  0
  3  4  2  0
  4  5  1  0
  5  6  2  0
  6  7  1  0
  7  8  1  0
  8  9  1  0
  9 10  1  0
 10 11  1  0
 11 12  1  0
 12 13  1  0
 12 14  2  0
  6  2  1  0
  1 15  1  0
  1 16  1  0
  1 17  1  0
  4 18  1  0
  5 19  1  0
  7 20  1  0
  7 21  1  0
  8 22  1  0
  8 23  1  0
  9 24  1  0
 11 25  1  0
 11 26  1  0
 13 27  1  0
 13 28  1  0
M  END
$$$$

     RDKit          3D

 28 28  0  0  0  0  0  0  0  0999 V2000
   -2.8635   -1.3880    1.3729 C   0  0  0  0  0  0  0  0  0  0  0  0
   -3.1598   -0.5561    0.2137 N   0  0  0  0  0  0  0  0  0  0  0  0
   -4.1443   -0.4093   -0.4942 N   0  0  0  0  0  0  0  0  0  0  0  0
   -4.2379    0.5650   -1.3100 C   0  0  0  0  0  0  0  0  0  0  0  0
   -2.9783    1.2388   -1.1289 C   0  0  0  0  0  0  0  0  0  0  0  0
   -2.3150    0.4063   -0.1681 C   0  0  0  0  0  0  0  0  0  0  0  0
   -0.8991    0.6516    0.0089 C   0  0  0  0  0  0  0  0  0  0  0  0
   -0.1170   -0.6117    0.4203 C   0  0  0  0  0  0  0  0  0  0  0  0
    1.2253   -0.3941   -0.0729 N   0  0  0  0  0  0  0  0  0  0  0  0
    1.8932    0.5757    0.3841 O   0  0  0  0  0  0  0  0  0  0  0  0
    3.0883    0.8508   -0.2814 C   0  0  0  0  0  0  0  0  0  0  0  0
    4.0318   -0.1743    0.2610 C   0  0  0  0  0  0  0  0  0  0  0  0
    5.2492   -0.0905   -0.3920 N   0  0  0  0  0  0  0  0  0  0  0  0
    3.7097   -0.9568    1.1103 O   0  0  0  0  0  0  0  0  0  0  0  0
   -2.3673   -0.8235    2.2419 H   0  0  0  0  0  0  0  0  0  0  0  0
   -3.8557   -1.7056    1.8588 H   0  0  0  0  0  0  0  0  0  0  0  0
   -2.3632   -2.3455    1.1829 H   0  0  0  0  0  0  0  0  0  0  0  0
   -5.0992    1.0181   -1.8603 H   0  0  0  0  0  0  0  0  0  0  0  0
   -2.6664    2.1410   -1.5945 H   0  0  0  0  0  0  0  0  0  0  0  0
   -0.7282    1.4335    0.8259 H   0  0  0  0  0  0  0  0  0  0  0  0
   -0.3495    1.0461   -0.8452 H   0  0  0  0  0  0  0  0  0  0  0  0
   -0.0818   -0.6463    1.5331 H   0  0  0  0  0  0  0  0  0  0  0  0
   -0.5810   -1.4654   -0.0566 H   0  0  0  0  0  0  0  0  0  0  0  0
    1.4747   -1.0143   -0.8443 H   0  0  0  0  0  0  0  0  0  0  0  0
    3.4310    1.8329    0.2453 H   0  0  0  0  0  0  0  0  0  0  0  0
    3.1325    1.0121   -1.3019 H   0  0  0  0  0  0  0  0  0  0  0  0
    5.6064   -0.8299   -1.1330 H   0  0  0  0  0  0  0  0  0  0  0  0
    5.9654    0.6393   -0.1759 H   0  0  0  0  0  0  0  0  0  0  0  0
  1  2  1  0
  2  3  1  0
  3  4  2  0
  4  5  1  0
  5  6  2  0
  6  7  1  0
  7  8  1  0
  8  9  1  0
  9 10  1  0
 10 11  1  0
 11 12  1  0
 12 13  1  0
 12 14  2  0
  6  2  1  0
  1 15  1  0
  1 16  1  0
  1 17  1  0
  4 18  1  0
  5 19  1  0
  7 20  1  0
  7 21  1  0
  8 22  1  0
  8 23  1  0
  9 24  1  0
 11 25  1  0
 11 26  1  0
 13 27  1  0
 13 28  1  0
M  END
$$$$

     RDKit          3D

 28 28  0  0  0  0  0  0  0  0999 V2000
   -3.5065    2.0730    0.5542 C   0  0  0  0  0  0  0  0  0  0  0  0
   -3.3125    0.6422    0.5002 N   0  0  0  0  0  0  0  0  0  0  0  0
   -4.2941   -0.2390    0.3492 N   0  0  0  0  0  0  0  0  0  0  0  0
   -3.7672   -1.4984    0.3479 C   0  0  0  0  0  0  0  0  0  0  0  0
   -2.4378   -1.3550    0.5168 C   0  0  0  0  0  0  0  0  0  0  0  0
   -2.1274   -0.0175    0.6037 C   0  0  0  0  0  0  0  0  0  0  0  0
   -0.8008    0.6131    0.7284 C   0  0  0  0  0  0  0  0  0  0  0  0
    0.1830   -0.5039    0.3470 C   0  0  0  0  0  0  0  0  0  0  0  0
    1.4925   -0.0399    0.2736 N   0  0  0  0  0  0  0  0  0  0  0  0
    2.3064   -0.6651   -0.5201 O   0  0  0  0  0  0  0  0  0  0  0  0
    3.3987   -1.3008    0.0749 C   0  0  0  0  0  0  0  0  0  0  0  0
    4.4840   -0.3501   -0.4728 C   0  0  0  0  0  0  0  0  0  0  0  0
    4.1980    0.9938   -0.0019 N   0  0  0  0  0  0  0  0  0  0  0  0
    5.3531   -0.6813   -1.1509 O   0  0  0  0  0  0  0  0  0  0  0  0
   -3.7376    2.3527    1.6297 H   0  0  0  0  0  0  0  0  0  0  0  0
   -4.3431    2.3568   -0.0852 H   0  0  0  0  0  0  0  0  0  0  0  0
   -2.5932    2.5965    0.2246 H   0  0  0  0  0  0  0  0  0  0  0  0
   -4.3675   -2.3933    0.2281 H   0  0  0  0  0  0  0  0  0  0  0  0
   -1.6973   -2.1391    0.5800 H   0  0  0  0  0  0  0  0  0  0  0  0
   -0.5653    1.1335    1.6371 H   0  0  0  0  0  0  0  0  0  0  0  0
   -0.7098    1.3638   -0.1255 H   0  0  0  0  0  0  0  0  0  0  0  0
   -0.2262   -1.0442   -0.4941 H   0  0  0  0  0  0  0  0  0  0  0  0
    0.0586   -1.2237    1.2480 H   0  0  0  0  0  0  0  0  0  0  0  0
    1.9099    0.0633    1.2502 H   0  0  0  0  0  0  0  0  0  0  0  0
    3.3569   -1.3748    1.1315 H   0  0  0  0  0  0  0  0  0  0  0  0
    3.5320   -2.2925   -0.4091 H   0  0  0  0  0  0  0  0  0  0  0  0
    4.1241    1.8216   -0.5874 H   0  0  0  0  0  0  0  0  0  0  0  0
    4.0892    1.1084    1.0521 H   0  0  0  0  0  0  0  0  0  0  0  0
  1  2  1  0
  2  3  1  0
  3  4  2  0
  4  5  1  0
  5  6  2  0
  6  7  1  0
  7  8  1  0
  8  9  1  0
  9 10  1  0
 10 11  1  0
 11 12  1  0
 12 13  1  0
 12 14  2  0
  6  2  1  0
  1 15  1  0
  1 16  1  0
  1 17  1  0
  4 18  1  0
  5 19  1  0
  7 20  1  0
  7 21  1  0
  8 22  1  0
  8 23  1  0
  9 24  1  0
 11 25  1  0
 11 26  1  0
 13 27  1  0
 13 28  1  0
M  END
$$$$

     RDKit          3D

 28 28  0  0  0  0  0  0  0  0999 V2000
   -2.1505    1.7608    0.7858 C   0  0  0  0  0  0  0  0  0  0  0  0
   -2.9140    0.5513    0.6505 N   0  0  0  0  0  0  0  0  0  0  0  0
   -4.2414    0.5261    0.8617 N   0  0  0  0  0  0  0  0  0  0  0  0
   -4.6711   -0.7111    0.6754 C   0  0  0  0  0  0  0  0  0  0  0  0
   -3.6092   -1.4857    0.3417 C   0  0  0  0  0  0  0  0  0  0  0  0
   -2.4664   -0.6691    0.3244 C   0  0  0  0  0  0  0  0  0  0  0  0
   -1.1210   -1.1680   -0.0078 C   0  0  0  0  0  0  0  0  0  0  0  0
   -0.0233   -0.1823   -0.0527 C   0  0  0  0  0  0  0  0  0  0  0  0
    1.2464   -0.8835   -0.3878 N   0  0  0  0  0  0  0  0  0  0  0  0
    2.2511    0.0214   -0.4285 O   0  0  0  0  0  0  0  0  0  0  0  0
    3.3903   -0.5400    0.1416 C   0  0  0  0  0  0  0  0  0  0  0  0
    4.5297    0.4097    0.1252 C   0  0  0  0  0  0  0  0  0  0  0  0
    4.4191    1.7177   -0.4166 N   0  0  0  0  0  0  0  0  0  0  0  0
    5.6397    0.0693    0.6006 O   0  0  0  0  0  0  0  0  0  0  0  0
   -1.6324    2.0851   -0.1223 H   0  0  0  0  0  0  0  0  0  0  0  0
   -2.8574    2.6192    1.0290 H   0  0  0  0  0  0  0  0  0  0  0  0
   -1.4612    1.7720    1.6632 H   0  0  0  0  0  0  0  0  0  0  0  0
   -5.7260   -0.9757    0.7926 H   0  0  0  0  0  0  0  0  0  0  0  0
   -3.5947   -2.5292    0.1233 H   0  0  0  0  0  0  0  0  0  0  0  0
   -1.1311   -1.8199   -0.9243 H   0  0  0  0  0  0  0  0  0  0  0  0
   -0.8531   -1.9097    0.8090 H   0  0  0  0  0  0  0  0  0  0  0  0
    0.2106    0.3542    0.8614 H   0  0  0  0  0  0  0  0  0  0  0  0
   -0.2025    0.4717   -0.9549 H   0  0  0  0  0  0  0  0  0  0  0  0
    1.4232   -1.5404    0.4120 H   0  0  0  0  0  0  0  0  0  0  0  0
    3.6635   -1.5133   -0.3428 H   0  0  0  0  0  0  0  0  0  0  0  0
    3.1173   -0.7902    1.2038 H   0  0  0  0  0  0  0  0  0  0  0  0
    4.6814    1.8447   -1.4206 H   0  0  0  0  0  0  0  0  0  0  0  0
    4.0829    2.5152    0.1893 H   0  0  0  0  0  0  0  0  0  0  0  0
  1  2  1  0
  2  3  1  0
  3  4  2  0
  4  5  1  0
  5  6  2  0
  6  7  1  0
  7  8  1  0
  8  9  1  0
  9 10  1  0
 10 11  1  0
 11 12  1  0
 12 13  1  0
 12 14  2  0
  6  2  1  0
  1 15  1  0
  1 16  1  0
  1 17  1  0
  4 18  1  0
  5 19  1  0
  7 20  1  0
  7 21  1  0
  8 22  1  0
  8 23  1  0
  9 24  1  0
 11 25  1  0
 11 26  1  0
 13 27  1  0
 13 28  1  0
M  END
$$$$

     RDKit          3D

 28 28  0  0  0  0  0  0  0  0999 V2000
    3.6835   -1.0867   -0.8497 C   0  0  0  0  0  0  0  0  0  0  0  0
    3.1346    0.1809   -0.4077 N   0  0  0  0  0  0  0  0  0  0  0  0
    3.5600    1.3793   -0.8224 N   0  0  0  0  0  0  0  0  0  0  0  0
    2.8591    2.3564   -0.2367 C   0  0  0  0  0  0  0  0  0  0  0  0
    1.9427    1.7008    0.5930 C   0  0  0  0  0  0  0  0  0  0  0  0
    2.1300    0.3391    0.4729 C   0  0  0  0  0  0  0  0  0  0  0  0
    1.3928   -0.7234    1.1581 C   0  0  0  0  0  0  0  0  0  0  0  0
    0.1914   -1.1661    0.3796 C   0  0  0  0  0  0  0  0  0  0  0  0
   -0.7408   -0.0488    0.1713 N   0  0  0  0  0  0  0  0  0  0  0  0
   -1.7963   -0.5302   -0.5382 O   0  0  0  0  0  0  0  0  0  0  0  0
   -2.9133    0.1908   -0.1911 C   0  0  0  0  0  0  0  0  0  0  0  0
   -4.1189   -0.2657   -0.9180 C   0  0  0  0  0  0  0  0  0  0  0  0
   -5.3847    0.3421   -0.7114 N   0  0  0  0  0  0  0  0  0  0  0  0
   -3.9916   -1.2142   -1.7305 O   0  0  0  0  0  0  0  0  0  0  0  0
    4.1943   -0.9337   -1.8204 H   0  0  0  0  0  0  0  0  0  0  0  0
    2.8639   -1.8344   -1.0095 H   0  0  0  0  0  0  0  0  0  0  0  0
    4.3709   -1.4986   -0.1010 H   0  0  0  0  0  0  0  0  0  0  0  0
    2.9890    3.4040   -0.3860 H   0  0  0  0  0  0  0  0  0  0  0  0
    1.2185    2.1784    1.2157 H   0  0  0  0  0  0  0  0  0  0  0  0
    1.0159   -0.4001    2.1697 H   0  0  0  0  0  0  0  0  0  0  0  0
    2.0066   -1.6265    1.3621 H   0  0  0  0  0  0  0  0  0  0  0  0
   -0.3695   -1.8931    1.0151 H   0  0  0  0  0  0  0  0  0  0  0  0
    0.4139   -1.6709   -0.5641 H   0  0  0  0  0  0  0  0  0  0  0  0
   -1.1327    0.2729    1.0848 H   0  0  0  0  0  0  0  0  0  0  0  0
   -3.1201    0.1726    0.9085 H   0  0  0  0  0  0  0  0  0  0  0  0
   -2.7226    1.2535   -0.4393 H   0  0  0  0  0  0  0  0  0  0  0  0
   -5.8423    0.8124   -1.5191 H   0  0  0  0  0  0  0  0  0  0  0  0
   -5.8341    0.3092    0.2376 H   0  0  0  0  0  0  0  0  0  0  0  0
  1  2  1  0
  2  3  1  0
  3  4  2  0
  4  5  1  0
  5  6  2  0
  6  7  1  0
  7  8  1  0
  8  9  1  0
  9 10  1  0
 10 11  1  0
 11 12  1  0
 12 13  1  0
 12 14  2  0
  6  2  1  0
  1 15  1  0
  1 16  1  0
  1 17  1  0
  4 18  1  0
  5 19  1  0
  7 20  1  0
  7 21  1  0
  8 22  1  0
  8 23  1  0
  9 24  1  0
 11 25  1  0
 11 26  1  0
 13 27  1  0
 13 28  1  0
M  END
$$$$

     RDKit          3D

 28 28  0  0  0  0  0  0  0  0999 V2000
   -2.7900    1.0689    2.0211 C   0  0  0  0  0  0  0  0  0  0  0  0
   -2.8731    0.7893    0.6060 N   0  0  0  0  0  0  0  0  0  0  0  0
   -3.6180    1.4171   -0.2741 N   0  0  0  0  0  0  0  0  0  0  0  0
   -3.4623    0.9109   -1.5026 C   0  0  0  0  0  0  0  0  0  0  0  0
   -2.5367   -0.1241   -1.3686 C   0  0  0  0  0  0  0  0  0  0  0  0
   -2.1990   -0.1627   -0.0430 C   0  0  0  0  0  0  0  0  0  0  0  0
   -1.2235   -1.1249    0.5826 C   0  0  0  0  0  0  0  0  0  0  0  0
    0.1702   -0.5422    0.5555 C   0  0  0  0  0  0  0  0  0  0  0  0
    1.0525   -1.5125    1.1685 N   0  0  0  0  0  0  0  0  0  0  0  0
    2.3315   -1.1193    1.2102 O   0  0  0  0  0  0  0  0  0  0  0  0
    2.6764   -0.3407    0.1246 C   0  0  0  0  0  0  0  0  0  0  0  0
    4.1105    0.0527    0.2488 C   0  0  0  0  0  0  0  0  0  0  0  0
    4.6746    0.8542   -0.7572 N   0  0  0  0  0  0  0  0  0  0  0  0
    4.8004   -0.3146    1.2161 O   0  0  0  0  0  0  0  0  0  0  0  0
   -2.5685    0.1323    2.5828 H   0  0  0  0  0  0  0  0  0  0  0  0
   -1.9656    1.8060    2.2382 H   0  0  0  0  0  0  0  0  0  0  0  0
   -3.7315    1.4743    2.4420 H   0  0  0  0  0  0  0  0  0  0  0  0
   -3.9279    1.2015   -2.4362 H   0  0  0  0  0  0  0  0  0  0  0  0
   -2.1718   -0.7595   -2.1720 H   0  0  0  0  0  0  0  0  0  0  0  0
   -1.5298   -1.3390    1.6240 H   0  0  0  0  0  0  0  0  0  0  0  0
   -1.1852   -2.0636   -0.0076 H   0  0  0  0  0  0  0  0  0  0  0  0
    0.2302    0.3778    1.1701 H   0  0  0  0  0  0  0  0  0  0  0  0
    0.4165   -0.3376   -0.5014 H   0  0  0  0  0  0  0  0  0  0  0  0
    0.9252   -2.4759    0.7914 H   0  0  0  0  0  0  0  0  0  0  0  0
    2.0869    0.6096    0.1874 H   0  0  0  0  0  0  0  0  0  0  0  0
    2.4864   -0.8571   -0.8354 H   0  0  0  0  0  0  0  0  0  0  0  0
    5.2641    1.6803   -0.4768 H   0  0  0  0  0  0  0  0  0  0  0  0
    4.5579    0.6987   -1.7668 H   0  0  0  0  0  0  0  0  0  0  0  0
  1  2  1  0
  2  3  1  0
  3  4  2  0
  4  5  1  0
  5  6  2  0
  6  7  1  0
  7  8  1  0
  8  9  1  0
  9 10  1  0
 10 11  1  0
 11 12  1  0
 12 13  1  0
 12 14  2  0
  6  2  1  0
  1 15  1  0
  1 16  1  0
  1 17  1  0
  4 18  1  0
  5 19  1  0
  7 20  1  0
  7 21  1  0
  8 22  1  0
  8 23  1  0
  9 24  1  0
 11 25  1  0
 11 26  1  0
 13 27  1  0
 13 28  1  0
M  END
$$$$
