
     RDKit          3D

 28 27  0  0  0  0  0  0  0  0999 V2000
   -3.2709    1.7019   -1.9743 N   0  0  0  0  0  0  0  0  0  0  0  0
   -3.0823    0.6286   -1.0287 C   0  0  0  0  0  0  0  0  0  0  0  0
   -3.0798   -0.5690   -1.4043 O   0  0  0  0  0  0  0  0  0  0  0  0
   -2.8943    0.8914    0.3510 N   0  0  0  0  0  0  0  0  0  0  0  0
   -2.6962   -0.1229    1.3541 C   0  0  0  0  0  0  0  0  0  0  0  0
   -1.4398   -0.8894    1.0257 C   0  0  0  0  0  0  0  0  0  0  0  0
   -0.2342    0.0437    0.9975 C   0  0  0  0  0  0  0  0  0  0  0  0
    1.0066   -0.7066    0.6740 C   0  0  0  0  0  0  0  0  0  0  0  0
    0.9330   -1.9514    0.4714 O   0  0  0  0  0  0  0  0  0  0  0  0
    2.2435   -0.0193    0.5984 N   0  0  0  0  0  0  0  0  0  0  0  0
    3.4700   -0.6744    0.2935 C   0  0  0  0  0  0  0  0  0  0  0  0
    3.4676   -1.3541   -1.0571 C   0  0  0  0  0  0  0  0  0  0  0  0
    3.2398   -0.4223   -2.0859 O   0  0  0  0  0  0  0  0  0  0  0  0
   -2.5271    1.9877   -2.6464 H   0  0  0  0  0  0  0  0  0  0  0  0
   -4.1674    2.2342   -2.0182 H   0  0  0  0  0  0  0  0  0  0  0  0
   -2.9003    1.8939    0.6595 H   0  0  0  0  0  0  0  0  0  0  0  0
   -3.5333   -0.8638    1.3613 H   0  0  0  0  0  0  0  0  0  0  0  0
   -2.6266    0.3368    2.3640 H   0  0  0  0  0  0  0  0  0  0  0  0
   -1.5617   -1.4237    0.0703 H   0  0  0  0  0  0  0  0  0  0  0  0
   -1.2913   -1.6300    1.8497 H   0  0  0  0  0  0  0  0  0  0  0  0
   -0.0832    0.4961    1.9982 H   0  0  0  0  0  0  0  0  0  0  0  0
   -0.4034    0.8739    0.2969 H   0  0  0  0  0  0  0  0  0  0  0  0
    2.2354    1.0038    0.7756 H   0  0  0  0  0  0  0  0  0  0  0  0
    4.3143    0.0414    0.2880 H   0  0  0  0  0  0  0  0  0  0  0  0
    3.7467   -1.4611    1.0366 H   0  0  0  0  0  0  0  0  0  0  0  0
    2.7786   -2.1974   -1.1266 H   0  0  0  0  0  0  0  0  0  0  0  0
    4.4945   -1.7436   -1.2214 H   0  0  0  0  0  0  0  0  0  0  0  0
    3.8617    0.3487   -1.9028 H   0  0  0  0  0  0  0  0  0  0  0  0
  1  2  1  0
  2  3  2  0
  2  4  1  0
  4  5  1  0
  5  6  1  0
  6  7  1  0
  7  8  1  0
  8  9  2  0
  8 10  1  0
 10 11  1  0
 11 12  1  0
 12 13  1  0
  1 14  1  0
  1 15  1  0
  4 16  1  0
  5 17  1  0
  5 18  1  0
  6 19  1  0
  6 20  1  0
  7 21  1  0
  7 22  1  0
 10 23  1  0
 11 24  1  0
 11 25  1  0
 12 26  1  0
 12 27  1  0
 13 28  1  0
M  END
$$$$

     RDKit          3D

 28 27  0  0  0  0  0  0  0  0999 V2000
   -4.8274    1.7462    0.0115 N   0  0  0  0  0  0  0  0  0  0  0  0
   -4.2461    0.5047    0.3320 C   0  0  0  0  0  0  0  0  0  0  0  0
   -4.9844   -0.3220    0.9679 O   0  0  0  0  0  0  0  0  0  0  0  0
   -2.9140    0.1819   -0.0281 N   0  0  0  0  0  0  0  0  0  0  0  0
   -2.3959   -1.1161    0.3407 C   0  0  0  0  0  0  0  0  0  0  0  0
   -0.9493   -1.2783   -0.1315 C   0  0  0  0  0  0  0  0  0  0  0  0
   -0.1381   -0.2066    0.5226 C   0  0  0  0  0  0  0  0  0  0  0  0
    1.2952   -0.2913    0.1149 C   0  0  0  0  0  0  0  0  0  0  0  0
    1.6869   -1.1964   -0.6935 O   0  0  0  0  0  0  0  0  0  0  0  0
    2.2175    0.6376    0.6298 N   0  0  0  0  0  0  0  0  0  0  0  0
    3.6135    0.6161    0.2809 C   0  0  0  0  0  0  0  0  0  0  0  0
    3.8356    0.7920   -1.2060 C   0  0  0  0  0  0  0  0  0  0  0  0
    5.2162    0.7559   -1.4319 O   0  0  0  0  0  0  0  0  0  0  0  0
   -4.9775    2.1041   -0.9519 H   0  0  0  0  0  0  0  0  0  0  0  0
   -5.1338    2.3598    0.7991 H   0  0  0  0  0  0  0  0  0  0  0  0
   -2.3166    0.8562   -0.5452 H   0  0  0  0  0  0  0  0  0  0  0  0
   -2.4582   -1.1837    1.4443 H   0  0  0  0  0  0  0  0  0  0  0  0
   -3.0584   -1.8709   -0.1227 H   0  0  0  0  0  0  0  0  0  0  0  0
   -0.8866   -1.1770   -1.2275 H   0  0  0  0  0  0  0  0  0  0  0  0
   -0.5787   -2.2550    0.2384 H   0  0  0  0  0  0  0  0  0  0  0  0
   -0.4862    0.8152    0.3506 H   0  0  0  0  0  0  0  0  0  0  0  0
   -0.1409   -0.4266    1.6296 H   0  0  0  0  0  0  0  0  0  0  0  0
    1.8886    1.3715    1.2880 H   0  0  0  0  0  0  0  0  0  0  0  0
    4.1707    1.4312    0.7804 H   0  0  0  0  0  0  0  0  0  0  0  0
    4.0466   -0.3663    0.5898 H   0  0  0  0  0  0  0  0  0  0  0  0
    3.3750   -0.0219   -1.8041 H   0  0  0  0  0  0  0  0  0  0  0  0
    3.4147    1.7370   -1.5819 H   0  0  0  0  0  0  0  0  0  0  0  0
    5.7313    0.6527   -0.5961 H   0  0  0  0  0  0  0  0  0  0  0  0
  1  2  1  0
  2  3  2  0
  2  4  1  0
  4  5  1  0
  5  6  1  0
  6  7  1  0
  7  8  1  0
  8  9  2  0
  8 10  1  0
 10 11  1  0
 11 12  1  0
 12 13  1  0
  1 14  1  0
  1 15  1  0
  4 16  1  0
  5 17  1  0
  5 18  1  0
  6 19  1  0
  6 20  1  0
  7 21  1  0
  7 22  1  0
 10 23  1  0
 11 24  1  0
 11 25  1  0
 12 26  1  0
 12 27  1  0
 13 28  1  0
M  END
$$$$

     RDKit          3D

 28 27  0  0  0  0  0  0  0  0999 V2000
    5.0241   -1.8231   -0.4639 N   0  0  0  0  0  0  0  0  0  0  0  0
    3.8815   -1.2709    0.1827 C   0  0  0  0  0  0  0  0  0  0  0  0
    4.0436   -0.6133    1.2242 O   0  0  0  0  0  0  0  0  0  0  0  0
    2.5835   -1.4736   -0.3611 N   0  0  0  0  0  0  0  0  0  0  0  0
    1.3650   -0.9493    0.2238 C   0  0  0  0  0  0  0  0  0  0  0  0
    1.4313    0.5322    0.2622 C   0  0  0  0  0  0  0  0  0  0  0  0
    0.2355    1.2078    0.8398 C   0  0  0  0  0  0  0  0  0  0  0  0
   -1.0235    0.9709    0.1583 C   0  0  0  0  0  0  0  0  0  0  0  0
   -1.0704    0.2474   -0.8602 O   0  0  0  0  0  0  0  0  0  0  0  0
   -2.2219    1.5512    0.6296 N   0  0  0  0  0  0  0  0  0  0  0  0
   -3.5035    1.3551   -0.0013 C   0  0  0  0  0  0  0  0  0  0  0  0
   -3.9046   -0.1063   -0.0340 C   0  0  0  0  0  0  0  0  0  0  0  0
   -3.9934   -0.6350    1.2584 O   0  0  0  0  0  0  0  0  0  0  0  0
    4.9626   -2.5817   -1.1886 H   0  0  0  0  0  0  0  0  0  0  0  0
    5.9886   -1.4916   -0.2411 H   0  0  0  0  0  0  0  0  0  0  0  0
    2.5563   -2.0493   -1.2485 H   0  0  0  0  0  0  0  0  0  0  0  0
    0.5175   -1.3636   -0.3328 H   0  0  0  0  0  0  0  0  0  0  0  0
    1.2967   -1.3463    1.2737 H   0  0  0  0  0  0  0  0  0  0  0  0
    2.3066    0.8477    0.8638 H   0  0  0  0  0  0  0  0  0  0  0  0
    1.6235    0.9062   -0.7635 H   0  0  0  0  0  0  0  0  0  0  0  0
    0.4398    2.3158    0.8047 H   0  0  0  0  0  0  0  0  0  0  0  0
    0.1398    0.9707    1.9196 H   0  0  0  0  0  0  0  0  0  0  0  0
   -2.1676    2.1517    1.4794 H   0  0  0  0  0  0  0  0  0  0  0  0
   -4.3168    1.8951    0.5130 H   0  0  0  0  0  0  0  0  0  0  0  0
   -3.4376    1.6762   -1.0738 H   0  0  0  0  0  0  0  0  0  0  0  0
   -4.9319   -0.1377   -0.4642 H   0  0  0  0  0  0  0  0  0  0  0  0
   -3.2644   -0.7155   -0.6755 H   0  0  0  0  0  0  0  0  0  0  0  0
   -4.5604   -0.0708    1.8076 H   0  0  0  0  0  0  0  0  0  0  0  0
  1  2  1  0
  2  3  2  0
  2  4  1  0
  4  5  1  0
  5  6  1  0
  6  7  1  0
  7  8  1  0
  8  9  2  0
  8 10  1  0
 10 11  1  0
 11 12  1  0
 12 13  1  0
  1 14  1  0
  1 15  1  0
  4 16  1  0
  5 17  1  0
  5 18  1  0
  6 19  1  0
  6 20  1  0
  7 21  1  0
  7 22  1  0
 10 23  1  0
 11 24  1  0
 11 25  1  0
 12 26  1  0
 12 27  1  0
 13 28  1  0
M  END
$$$$

     RDKit          3D

 28 27  0  0  0  0  0  0  0  0999 V2000
    5.5701    0.8392    1.3659 N   0  0  0  0  0  0  0  0  0  0  0  0
    4.6271    0.3255    0.4423 C   0  0  0  0  0  0  0  0  0  0  0  0
    5.0230   -0.1654   -0.6510 O   0  0  0  0  0  0  0  0  0  0  0  0
    3.2215    0.3328    0.6862 N   0  0  0  0  0  0  0  0  0  0  0  0
    2.3006   -0.2098   -0.3016 C   0  0  0  0  0  0  0  0  0  0  0  0
    0.9139   -0.0482    0.2626 C   0  0  0  0  0  0  0  0  0  0  0  0
   -0.1569   -0.5691   -0.6554 C   0  0  0  0  0  0  0  0  0  0  0  0
   -1.4714   -0.3692   -0.0221 C   0  0  0  0  0  0  0  0  0  0  0  0
   -1.5410    0.1599    1.0990 O   0  0  0  0  0  0  0  0  0  0  0  0
   -2.6349   -0.7793   -0.6928 N   0  0  0  0  0  0  0  0  0  0  0  0
   -3.9773   -0.6413   -0.1936 C   0  0  0  0  0  0  0  0  0  0  0  0
   -4.2657    0.8100    0.0063 C   0  0  0  0  0  0  0  0  0  0  0  0
   -4.1226    1.4322   -1.2509 O   0  0  0  0  0  0  0  0  0  0  0  0
    5.6670    1.8586    1.5649 H   0  0  0  0  0  0  0  0  0  0  0  0
    6.2128    0.1913    1.8880 H   0  0  0  0  0  0  0  0  0  0  0  0
    2.9171    0.7423    1.5939 H   0  0  0  0  0  0  0  0  0  0  0  0
    2.5061   -1.2860   -0.5086 H   0  0  0  0  0  0  0  0  0  0  0  0
    2.3548    0.3932   -1.2501 H   0  0  0  0  0  0  0  0  0  0  0  0
    0.7823    1.0282    0.4942 H   0  0  0  0  0  0  0  0  0  0  0  0
    0.8263   -0.5865    1.2226 H   0  0  0  0  0  0  0  0  0  0  0  0
   -0.1800   -0.0002   -1.6304 H   0  0  0  0  0  0  0  0  0  0  0  0
    0.0046   -1.6412   -0.8991 H   0  0  0  0  0  0  0  0  0  0  0  0
   -2.5016   -1.2261   -1.6448 H   0  0  0  0  0  0  0  0  0  0  0  0
   -4.0936   -1.1485    0.7994 H   0  0  0  0  0  0  0  0  0  0  0  0
   -4.6958   -1.1522   -0.8610 H   0  0  0  0  0  0  0  0  0  0  0  0
   -3.5043    1.2456    0.6667 H   0  0  0  0  0  0  0  0  0  0  0  0
   -5.3003    0.9473    0.3902 H   0  0  0  0  0  0  0  0  0  0  0  0
   -4.4817    0.7849   -1.9207 H   0  0  0  0  0  0  0  0  0  0  0  0
  1  2  1  0
  2  3  2  0
  2  4  1  0
  4  5  1  0
  5  6  1  0
  6  7  1  0
  7  8  1  0
  8  9  2  0
  8 10  1  0
 10 11  1  0
 11 12  1  0
 12 13  1  0
  1 14  1  0
  1 15  1  0
  4 16  1  0
  5 17  1  0
  5 18  1  0
  6 19  1  0
  6 20  1  0
  7 21  1  0
  7 22  1  0
 10 23  1  0
 11 24  1  0
 11 25  1  0
 12 26  1  0
 12 27  1  0
 13 28  1  0
M  END
$$$$

     RDKit          3D

 28 27  0  0  0  0  0  0  0  0999 V2000
    3.7449   -2.2326   -0.5289 N   0  0  0  0  0  0  0  0  0  0  0  0
    3.3574   -0.8587   -0.3675 C   0  0  0  0  0  0  0  0  0  0  0  0
    4.1417   -0.1518    0.3095 O   0  0  0  0  0  0  0  0  0  0  0  0
    2.1668   -0.4191   -0.9598 N   0  0  0  0  0  0  0  0  0  0  0  0
    1.7557    0.9611   -0.8090 C   0  0  0  0  0  0  0  0  0  0  0  0
    1.5544    1.3117    0.6338 C   0  0  0  0  0  0  0  0  0  0  0  0
    0.5212    0.4921    1.3332 C   0  0  0  0  0  0  0  0  0  0  0  0
   -0.8176    0.6236    0.7482 C   0  0  0  0  0  0  0  0  0  0  0  0
   -1.0184    1.3877   -0.2031 O   0  0  0  0  0  0  0  0  0  0  0  0
   -1.9453   -0.1069    1.2315 N   0  0  0  0  0  0  0  0  0  0  0  0
   -3.2558    0.0093    0.6734 C   0  0  0  0  0  0  0  0  0  0  0  0
   -3.3275   -0.3683   -0.7835 C   0  0  0  0  0  0  0  0  0  0  0  0
   -4.6740   -0.1988   -1.1706 O   0  0  0  0  0  0  0  0  0  0  0  0
    4.3937   -2.4876   -1.2854 H   0  0  0  0  0  0  0  0  0  0  0  0
    3.3297   -2.9095    0.1549 H   0  0  0  0  0  0  0  0  0  0  0  0
    1.6005   -1.1181   -1.5044 H   0  0  0  0  0  0  0  0  0  0  0  0
    2.5778    1.6140   -1.2353 H   0  0  0  0  0  0  0  0  0  0  0  0
    0.8832    1.1172   -1.4516 H   0  0  0  0  0  0  0  0  0  0  0  0
    1.2609    2.3927    0.7592 H   0  0  0  0  0  0  0  0  0  0  0  0
    2.5073    1.2284    1.1939 H   0  0  0  0  0  0  0  0  0  0  0  0
    0.8527   -0.5679    1.4211 H   0  0  0  0  0  0  0  0  0  0  0  0
    0.4481    0.8648    2.3885 H   0  0  0  0  0  0  0  0  0  0  0  0
   -1.7968   -0.7517    2.0274 H   0  0  0  0  0  0  0  0  0  0  0  0
   -3.9939   -0.5664    1.2652 H   0  0  0  0  0  0  0  0  0  0  0  0
   -3.5997    1.0779    0.7347 H   0  0  0  0  0  0  0  0  0  0  0  0
   -2.7423    0.3174   -1.3973 H   0  0  0  0  0  0  0  0  0  0  0  0
   -3.1028   -1.4353   -0.9435 H   0  0  0  0  0  0  0  0  0  0  0  0
   -4.8220    0.7747   -1.1826 H   0  0  0  0  0  0  0  0  0  0  0  0
  1  2  1  0
  2  3  2  0
  2  4  1  0
  4  5  1  0
  5  6  1  0
  6  7  1  0
  7  8  1  0
  8  9  2  0
  8 10  1  0
 10 11  1  0
 11 12  1  0
 12 13  1  0
  1 14  1  0
  1 15  1  0
  4 16  1  0
  5 17  1  0
  5 18  1  0
  6 19  1  0
  6 20  1  0
  7 21  1  0
  7 22  1  0
 10 23  1  0
 11 24  1  0
 11 25  1  0
 12 26  1  0
 12 27  1  0
 13 28  1  0
M  END
$$$$

     RDKit          3D

 28 27  0  0  0  0  0  0  0  0999 V2000
    5.3455    0.6878    0.6574 N   0  0  0  0  0  0  0  0  0  0  0  0
    4.1456    0.3852   -0.0861 C   0  0  0  0  0  0  0  0  0  0  0  0
    4.0763    0.5320   -1.3141 O   0  0  0  0  0  0  0  0  0  0  0  0
    3.0523   -0.0921    0.6901 N   0  0  0  0  0  0  0  0  0  0  0  0
    1.7957   -0.4327    0.0966 C   0  0  0  0  0  0  0  0  0  0  0  0
    1.1349    0.7221   -0.6028 C   0  0  0  0  0  0  0  0  0  0  0  0
   -0.1829    0.3964   -1.2321 C   0  0  0  0  0  0  0  0  0  0  0  0
   -1.2256   -0.0549   -0.3116 C   0  0  0  0  0  0  0  0  0  0  0  0
   -1.0019   -0.0990    0.9211 O   0  0  0  0  0  0  0  0  0  0  0  0
   -2.5103   -0.4546   -0.7660 N   0  0  0  0  0  0  0  0  0  0  0  0
   -3.5589   -0.9032    0.1204 C   0  0  0  0  0  0  0  0  0  0  0  0
   -3.9466    0.1616    1.1200 C   0  0  0  0  0  0  0  0  0  0  0  0
   -4.3985    1.2834    0.4123 O   0  0  0  0  0  0  0  0  0  0  0  0
    6.2907    0.5735    0.2443 H   0  0  0  0  0  0  0  0  0  0  0  0
    5.2872    1.0335    1.6413 H   0  0  0  0  0  0  0  0  0  0  0  0
    3.1501   -0.2066    1.7461 H   0  0  0  0  0  0  0  0  0  0  0  0
    2.0118   -1.2676   -0.6399 H   0  0  0  0  0  0  0  0  0  0  0  0
    1.1333   -0.9115    0.8424 H   0  0  0  0  0  0  0  0  0  0  0  0
    1.8387    1.1020   -1.3755 H   0  0  0  0  0  0  0  0  0  0  0  0
    1.0193    1.5972    0.1038 H   0  0  0  0  0  0  0  0  0  0  0  0
   -0.5010    1.2927   -1.8354 H   0  0  0  0  0  0  0  0  0  0  0  0
   -0.0235   -0.4022   -2.0140 H   0  0  0  0  0  0  0  0  0  0  0  0
   -2.6937   -0.4170   -1.8044 H   0  0  0  0  0  0  0  0  0  0  0  0
   -3.1698   -1.7871    0.7096 H   0  0  0  0  0  0  0  0  0  0  0  0
   -4.4290   -1.2860   -0.4208 H   0  0  0  0  0  0  0  0  0  0  0  0
   -3.0958    0.4449    1.7464 H   0  0  0  0  0  0  0  0  0  0  0  0
   -4.7722   -0.1936    1.7859 H   0  0  0  0  0  0  0  0  0  0  0  0
   -4.7716    0.9508   -0.4352 H   0  0  0  0  0  0  0  0  0  0  0  0
  1  2  1  0
  2  3  2  0
  2  4  1  0
  4  5  1  0
  5  6  1  0
  6  7  1  0
  7  8  1  0
  8  9  2  0
  8 10  1  0
 10 11  1  0
 11 12  1  0
 12 13  1  0
  1 14  1  0
  1 15  1  0
  4 16  1  0
  5 17  1  0
  5 18  1  0
  6 19  1  0
  6 20  1  0
  7 21  1  0
  7 22  1  0
 10 23  1  0
 11 24  1  0
 11 25  1  0
 12 26  1  0
 12 27  1  0
 13 28  1  0
M  END
$$$$

     RDKit          3D

 28 27  0  0  0  0  0  0  0  0999 V2000
   -3.9398   -2.1258   -0.4656 N   0  0  0  0  0  0  0  0  0  0  0  0
   -3.3361   -1.0758    0.2859 C   0  0  0  0  0  0  0  0  0  0  0  0
   -2.8773   -1.3414    1.4251 O   0  0  0  0  0  0  0  0  0  0  0  0
   -3.2415    0.2480   -0.2151 N   0  0  0  0  0  0  0  0  0  0  0  0
   -2.6329    1.3182    0.5365 C   0  0  0  0  0  0  0  0  0  0  0  0
   -1.2074    1.0748    0.8778 C   0  0  0  0  0  0  0  0  0  0  0  0
   -0.3304    0.8945   -0.3404 C   0  0  0  0  0  0  0  0  0  0  0  0
    1.0827    0.6539    0.0302 C   0  0  0  0  0  0  0  0  0  0  0  0
    1.4111    0.6222    1.2453 O   0  0  0  0  0  0  0  0  0  0  0  0
    2.1004    0.4541   -0.9408 N   0  0  0  0  0  0  0  0  0  0  0  0
    3.4736    0.2191   -0.6338 C   0  0  0  0  0  0  0  0  0  0  0  0
    3.6804   -1.0308    0.2010 C   0  0  0  0  0  0  0  0  0  0  0  0
    5.0196   -1.2396    0.4872 O   0  0  0  0  0  0  0  0  0  0  0  0
   -4.9767   -2.2305   -0.3641 H   0  0  0  0  0  0  0  0  0  0  0  0
   -3.3619   -2.7441   -1.0769 H   0  0  0  0  0  0  0  0  0  0  0  0
   -3.6353    0.4188   -1.1623 H   0  0  0  0  0  0  0  0  0  0  0  0
   -2.7076    2.2590   -0.0465 H   0  0  0  0  0  0  0  0  0  0  0  0
   -3.1782    1.5182    1.4918 H   0  0  0  0  0  0  0  0  0  0  0  0
   -0.8575    1.9113    1.5162 H   0  0  0  0  0  0  0  0  0  0  0  0
   -1.0826    0.1541    1.5017 H   0  0  0  0  0  0  0  0  0  0  0  0
   -0.4496    1.7188   -1.0677 H   0  0  0  0  0  0  0  0  0  0  0  0
   -0.6881   -0.0256   -0.8520 H   0  0  0  0  0  0  0  0  0  0  0  0
    1.7527    0.4937   -1.9469 H   0  0  0  0  0  0  0  0  0  0  0  0
    4.0216    0.0536   -1.5839 H   0  0  0  0  0  0  0  0  0  0  0  0
    3.9741    1.0732   -0.1328 H   0  0  0  0  0  0  0  0  0  0  0  0
    3.1394   -0.9659    1.1654 H   0  0  0  0  0  0  0  0  0  0  0  0
    3.3099   -1.9181   -0.3390 H   0  0  0  0  0  0  0  0  0  0  0  0
    5.5374   -0.3880    0.4710 H   0  0  0  0  0  0  0  0  0  0  0  0
  1  2  1  0
  2  3  2  0
  2  4  1  0
  4  5  1  0
  5  6  1  0
  6  7  1  0
  7  8  1  0
  8  9  2  0
  8 10  1  0
 10 11  1  0
 11 12  1  0
 12 13  1  0
  1 14  1  0
  1 15  1  0
  4 16  1  0
  5 17  1  0
  5 18  1  0
  6 19  1  0
  6 20  1  0
  7 21  1  0
  7 22  1  0
 10 23  1  0
 11 24  1  0
 11 25  1  0
 12 26  1  0
 12 27  1  0
 13 28  1  0
M  END
$$$$

     RDKit          3D

 28 27  0  0  0  0  0  0  0  0999 V2000
    4.2794    0.7612    1.5494 N   0  0  0  0  0  0  0  0  0  0  0  0
    3.5192   -0.2914    0.9193 C   0  0  0  0  0  0  0  0  0  0  0  0
    3.1749   -1.2863    1.5835 O   0  0  0  0  0  0  0  0  0  0  0  0
    3.1890   -0.1533   -0.4463 N   0  0  0  0  0  0  0  0  0  0  0  0
    2.4338   -1.1500   -1.1586 C   0  0  0  0  0  0  0  0  0  0  0  0
    1.0656   -1.3520   -0.5415 C   0  0  0  0  0  0  0  0  0  0  0  0
    0.3492   -0.0301   -0.6042 C   0  0  0  0  0  0  0  0  0  0  0  0
   -1.0163   -0.1111   -0.0209 C   0  0  0  0  0  0  0  0  0  0  0  0
   -1.4824   -1.1586    0.4538 O   0  0  0  0  0  0  0  0  0  0  0  0
   -1.8710    1.0390    0.0197 N   0  0  0  0  0  0  0  0  0  0  0  0
   -3.1799    1.0342    0.5591 C   0  0  0  0  0  0  0  0  0  0  0  0
   -4.1355    0.0845   -0.1074 C   0  0  0  0  0  0  0  0  0  0  0  0
   -5.3595    0.2194    0.5532 O   0  0  0  0  0  0  0  0  0  0  0  0
    5.2174    0.5538    1.9537 H   0  0  0  0  0  0  0  0  0  0  0  0
    3.9163    1.7236    1.6116 H   0  0  0  0  0  0  0  0  0  0  0  0
    3.5064    0.7013   -0.9466 H   0  0  0  0  0  0  0  0  0  0  0  0
    2.3546   -0.8836   -2.2317 H   0  0  0  0  0  0  0  0  0  0  0  0
    2.9382   -2.1475   -1.1362 H   0  0  0  0  0  0  0  0  0  0  0  0
    0.4864   -2.1358   -1.1000 H   0  0  0  0  0  0  0  0  0  0  0  0
    1.1876   -1.7489    0.4716 H   0  0  0  0  0  0  0  0  0  0  0  0
    0.3124    0.3075   -1.6404 H   0  0  0  0  0  0  0  0  0  0  0  0
    0.9401    0.6901   -0.0023 H   0  0  0  0  0  0  0  0  0  0  0  0
   -1.4798    1.9226   -0.3799 H   0  0  0  0  0  0  0  0  0  0  0  0
   -3.1372    0.7697    1.6471 H   0  0  0  0  0  0  0  0  0  0  0  0
   -3.6175    2.0491    0.4951 H   0  0  0  0  0  0  0  0  0  0  0  0
   -4.3012    0.4364   -1.1590 H   0  0  0  0  0  0  0  0  0  0  0  0
   -3.8470   -0.9664   -0.0387 H   0  0  0  0  0  0  0  0  0  0  0  0
   -5.4432    1.1224    0.9563 H   0  0  0  0  0  0  0  0  0  0  0  0
  1  2  1  0
  2  3  2  0
  2  4  1  0
  4  5  1  0
  5  6  1  0
  6  7  1  0
  7  8  1  0
  8  9  2  0
  8 10  1  0
 10 11  1  0
 11 12  1  0
 12 13  1  0
  1 14  1  0
  1 15  1  0
  4 16  1  0
  5 17  1  0
  5 18  1  0
  6 19  1  0
  6 20  1  0
  7 21  1  0
  7 22  1  0
 10 23  1  0
 11 24  1  0
 11 25  1  0
 12 26  1  0
 12 27  1  0
 13 28  1  0
M  END
$$$$
