
     RDKit          3D

 24 23  0  0  0  0  0  0  0  0999 V2000
    4.2281    0.4658   -0.4505 C   0  0  0  0  0  0  0  0  0  0  0  0
    3.1943    0.0212    0.4350 N   0  0  0  0  0  0  0  0  0  0  0  0
    1.8189   -0.1052    0.0238 C   0  0  0  0  0  0  0  0  0  0  0  0
    1.5230    0.1831   -1.1427 O   0  0  0  0  0  0  0  0  0  0  0  0
    0.8339   -0.5511    0.9435 N   0  0  0  0  0  0  0  0  0  0  0  0
   -0.5734   -0.6932    0.5681 C   0  0  0  0  0  0  0  0  0  0  0  0
   -1.1621    0.5950    0.1202 C   0  0  0  0  0  0  0  0  0  0  0  0
   -2.6139    0.4825   -0.2388 C   0  0  1  0  0  0  0  0  0  0  0  0
   -3.1079    1.7455   -0.6454 O   0  0  0  0  0  0  0  0  0  0  0  0
   -2.8049   -0.4683   -1.3555 C   0  0  0  0  0  0  0  0  0  0  0  0
   -3.2127   -0.0437   -2.4845 O   0  0  0  0  0  0  0  0  0  0  0  0
   -2.5719   -1.8283   -1.2702 O   0  0  0  0  0  0  0  0  0  0  0  0
    5.0624    0.8562    0.1790 H   0  0  0  0  0  0  0  0  0  0  0  0
    3.8709    1.3255   -1.0514 H   0  0  0  0  0  0  0  0  0  0  0  0
    4.5832   -0.3831   -1.0414 H   0  0  0  0  0  0  0  0  0  0  0  0
    3.3829   -0.2380    1.4362 H   0  0  0  0  0  0  0  0  0  0  0  0
    1.1141   -0.7867    1.9188 H   0  0  0  0  0  0  0  0  0  0  0  0
   -1.1418   -1.1249    1.4027 H   0  0  0  0  0  0  0  0  0  0  0  0
   -0.6232   -1.4387   -0.2750 H   0  0  0  0  0  0  0  0  0  0  0  0
   -1.0724    1.3811    0.9100 H   0  0  0  0  0  0  0  0  0  0  0  0
   -0.6281    1.0078   -0.7702 H   0  0  0  0  0  0  0  0  0  0  0  0
   -3.1608    0.1127    0.6323 H   0  0  0  0  0  0  0  0  0  0  0  0
   -3.8146    2.0041   -0.0299 H   0  0  0  0  0  0  0  0  0  0  0  0
   -3.1240   -2.5194   -1.7588 H   0  0  0  0  0  0  0  0  0  0  0  0
  1  2  1  0
  2  3  1  0
  3  4  2  0
  3  5  1  0
  5  6  1  0
  6  7  1  0
  7  8  1  0
  8  9  1  0
  8 10  1  0
 10 11  2  0
 10 12  1  0
  1 13  1  0
  1 14  1  0
  1 15  1  0
  2 16  1  0
  5 17  1  0
  6 18  1  0
  6 19  1  0
  7 20  1  0
  7 21  1  0
  8 22  1  1
  9 23  1  0
 12 24  1  0
M  END
$$$$

     RDKit          3D

 24 23  0  0  0  0  0  0  0  0999 V2000
    4.6329   -0.6555   -0.2670 C   0  0  0  0  0  0  0  0  0  0  0  0
    3.3966    0.1098   -0.3133 N   0  0  0  0  0  0  0  0  0  0  0  0
    2.1628   -0.3978    0.1707 C   0  0  0  0  0  0  0  0  0  0  0  0
    2.0991   -1.5427    0.6624 O   0  0  0  0  0  0  0  0  0  0  0  0
    0.9551    0.3702    0.1169 N   0  0  0  0  0  0  0  0  0  0  0  0
   -0.3054   -0.1493    0.6118 C   0  0  0  0  0  0  0  0  0  0  0  0
   -1.3473    0.8942    0.4065 C   0  0  0  0  0  0  0  0  0  0  0  0
   -2.7262    0.5047    0.8753 C   0  0  1  0  0  0  0  0  0  0  0  0
   -3.5539    1.5928    0.6042 O   0  0  0  0  0  0  0  0  0  0  0  0
   -3.2700   -0.6855    0.2381 C   0  0  0  0  0  0  0  0  0  0  0  0
   -2.6974   -1.7898    0.3486 O   0  0  0  0  0  0  0  0  0  0  0  0
   -4.4339   -0.6125   -0.5027 O   0  0  0  0  0  0  0  0  0  0  0  0
    5.0664   -0.6264   -1.2982 H   0  0  0  0  0  0  0  0  0  0  0  0
    4.4102   -1.6860    0.0547 H   0  0  0  0  0  0  0  0  0  0  0  0
    5.3449   -0.1715    0.4325 H   0  0  0  0  0  0  0  0  0  0  0  0
    3.4126    1.0843   -0.7235 H   0  0  0  0  0  0  0  0  0  0  0  0
    1.0397    1.3231   -0.2993 H   0  0  0  0  0  0  0  0  0  0  0  0
   -0.1942   -0.4842    1.6479 H   0  0  0  0  0  0  0  0  0  0  0  0
   -0.5198   -1.0474   -0.0289 H   0  0  0  0  0  0  0  0  0  0  0  0
   -1.0509    1.7843    1.0348 H   0  0  0  0  0  0  0  0  0  0  0  0
   -1.3804    1.2214   -0.6309 H   0  0  0  0  0  0  0  0  0  0  0  0
   -2.7233    0.3940    1.9815 H   0  0  0  0  0  0  0  0  0  0  0  0
   -3.2570    1.9817   -0.2588 H   0  0  0  0  0  0  0  0  0  0  0  0
   -5.0605   -1.4118   -0.6321 H   0  0  0  0  0  0  0  0  0  0  0  0
  1  2  1  0
  2  3  1  0
  3  4  2  0
  3  5  1  0
  5  6  1  0
  6  7  1  0
  7  8  1  0
  8  9  1  0
  8 10  1  0
 10 11  2  0
 10 12  1  0
  1 13  1  0
  1 14  1  0
  1 15  1  0
  2 16  1  0
  5 17  1  0
  6 18  1  0
  6 19  1  0
  7 20  1  0
  7 21  1  0
  8 22  1  1
  9 23  1  0
 12 24  1  0
M  END
$$$$

     RDKit          3D

 24 23  0  0  0  0  0  0  0  0999 V2000
    4.2738   -0.3082    0.3911 C   0  0  0  0  0  0  0  0  0  0  0  0
    3.1659    0.6057    0.2261 N   0  0  0  0  0  0  0  0  0  0  0  0
    1.8682    0.1005   -0.0963 C   0  0  0  0  0  0  0  0  0  0  0  0
    1.7377   -1.1241   -0.2248 O   0  0  0  0  0  0  0  0  0  0  0  0
    0.7703    0.9847   -0.2616 N   0  0  0  0  0  0  0  0  0  0  0  0
   -0.5722    0.5270   -0.5858 C   0  0  0  0  0  0  0  0  0  0  0  0
   -1.0764   -0.3819    0.4893 C   0  0  0  0  0  0  0  0  0  0  0  0
   -2.4642   -0.8979    0.1829 C   0  0  1  0  0  0  0  0  0  0  0  0
   -2.8678   -1.7516    1.2405 O   0  0  0  0  0  0  0  0  0  0  0  0
   -3.4627    0.1683    0.0239 C   0  0  0  0  0  0  0  0  0  0  0  0
   -4.4533    0.2523    0.8376 O   0  0  0  0  0  0  0  0  0  0  0  0
   -3.4407    1.1282   -0.9572 O   0  0  0  0  0  0  0  0  0  0  0  0
    4.6073   -0.3860    1.4557 H   0  0  0  0  0  0  0  0  0  0  0  0
    4.0682   -1.2983   -0.0605 H   0  0  0  0  0  0  0  0  0  0  0  0
    5.1295    0.1309   -0.1925 H   0  0  0  0  0  0  0  0  0  0  0  0
    3.3220    1.6284    0.3436 H   0  0  0  0  0  0  0  0  0  0  0  0
    0.9967    2.0161   -0.1313 H   0  0  0  0  0  0  0  0  0  0  0  0
   -0.6321    0.0460   -1.5654 H   0  0  0  0  0  0  0  0  0  0  0  0
   -1.2230    1.4456   -0.6140 H   0  0  0  0  0  0  0  0  0  0  0  0
   -1.1429    0.1661    1.4645 H   0  0  0  0  0  0  0  0  0  0  0  0
   -0.4001   -1.2497    0.6417 H   0  0  0  0  0  0  0  0  0  0  0  0
   -2.4383   -1.5513   -0.7233 H   0  0  0  0  0  0  0  0  0  0  0  0
   -2.1343   -2.3588    1.4670 H   0  0  0  0  0  0  0  0  0  0  0  0
   -3.6317    2.1082   -0.7339 H   0  0  0  0  0  0  0  0  0  0  0  0
  1  2  1  0
  2  3  1  0
  3  4  2  0
  3  5  1  0
  5  6  1  0
  6  7  1  0
  7  8  1  0
  8  9  1  0
  8 10  1  0
 10 11  2  0
 10 12  1  0
  1 13  1  0
  1 14  1  0
  1 15  1  0
  2 16  1  0
  5 17  1  0
  6 18  1  0
  6 19  1  0
  7 20  1  0
  7 21  1  0
  8 22  1  6
  9 23  1  0
 12 24  1  0
M  END
$$$$

     RDKit          3D

 24 23  0  0  0  0  0  0  0  0999 V2000
    4.2298    0.4813    0.5617 C   0  0  0  0  0  0  0  0  0  0  0  0
    3.2390   -0.4838    0.1842 N   0  0  0  0  0  0  0  0  0  0  0  0
    1.9062   -0.1504   -0.2053 C   0  0  0  0  0  0  0  0  0  0  0  0
    1.5972    1.0906   -0.2111 O   0  0  0  0  0  0  0  0  0  0  0  0
    0.9525   -1.1358   -0.5729 N   0  0  0  0  0  0  0  0  0  0  0  0
   -0.3798   -0.8213   -0.9635 C   0  0  0  0  0  0  0  0  0  0  0  0
   -1.1621   -0.0905    0.1235 C   0  0  0  0  0  0  0  0  0  0  0  0
   -2.5419    0.1631   -0.4547 C   0  0  1  0  0  0  0  0  0  0  0  0
   -3.1919   -0.9951   -0.7946 O   0  0  0  0  0  0  0  0  0  0  0  0
   -3.3737    0.9992    0.4044 C   0  0  0  0  0  0  0  0  0  0  0  0
   -4.5184    0.5975    0.7204 O   0  0  0  0  0  0  0  0  0  0  0  0
   -2.9897    2.2329    0.9116 O   0  0  0  0  0  0  0  0  0  0  0  0
    4.6160    0.3402    1.5941 H   0  0  0  0  0  0  0  0  0  0  0  0
    5.1210    0.3099   -0.1071 H   0  0  0  0  0  0  0  0  0  0  0  0
    3.8917    1.5079    0.3531 H   0  0  0  0  0  0  0  0  0  0  0  0
    3.4814   -1.5004    0.1855 H   0  0  0  0  0  0  0  0  0  0  0  0
    1.2575   -2.1291   -0.5503 H   0  0  0  0  0  0  0  0  0  0  0  0
   -0.4405   -0.1958   -1.8805 H   0  0  0  0  0  0  0  0  0  0  0  0
   -0.9588   -1.7402   -1.1840 H   0  0  0  0  0  0  0  0  0  0  0  0
   -1.3078   -0.7910    0.9826 H   0  0  0  0  0  0  0  0  0  0  0  0
   -0.6800    0.8273    0.4559 H   0  0  0  0  0  0  0  0  0  0  0  0
   -2.3764    0.7351   -1.4140 H   0  0  0  0  0  0  0  0  0  0  0  0
   -3.0867   -1.7347   -0.1570 H   0  0  0  0  0  0  0  0  0  0  0  0
   -3.2847    2.4831    1.8548 H   0  0  0  0  0  0  0  0  0  0  0  0
  1  2  1  0
  2  3  1  0
  3  4  2  0
  3  5  1  0
  5  6  1  0
  6  7  1  0
  7  8  1  0
  8  9  1  0
  8 10  1  0
 10 11  2  0
 10 12  1  0
  1 13  1  0
  1 14  1  0
  1 15  1  0
  2 16  1  0
  5 17  1  0
  6 18  1  0
  6 19  1  0
  7 20  1  0
  7 21  1  0
  8 22  1  6
  9 23  1  0
 12 24  1  0
M  END
$$$$

     RDKit          3D

 24 23  0  0  0  0  0  0  0  0999 V2000
    4.0427   -0.4321    1.1969 C   0  0  0  0  0  0  0  0  0  0  0  0
    3.2854   -0.5254   -0.0351 N   0  0  0  0  0  0  0  0  0  0  0  0
    1.9496    0.0050   -0.0776 C   0  0  0  0  0  0  0  0  0  0  0  0
    1.4934    0.5310    0.9651 O   0  0  0  0  0  0  0  0  0  0  0  0
    1.1738   -0.0664   -1.2656 N   0  0  0  0  0  0  0  0  0  0  0  0
   -0.1616    0.4800   -1.2456 C   0  0  0  0  0  0  0  0  0  0  0  0
   -1.0626   -0.1795   -0.2446 C   0  0  0  0  0  0  0  0  0  0  0  0
   -2.4291    0.4688   -0.3101 C   0  0  1  0  0  0  0  0  0  0  0  0
   -2.9444    0.3049   -1.6011 O   0  0  0  0  0  0  0  0  0  0  0  0
   -3.3580   -0.1308    0.6903 C   0  0  0  0  0  0  0  0  0  0  0  0
   -4.4380   -0.6924    0.3717 O   0  0  0  0  0  0  0  0  0  0  0  0
   -3.0054   -0.0597    2.0217 O   0  0  0  0  0  0  0  0  0  0  0  0
    4.6618    0.4990    1.1983 H   0  0  0  0  0  0  0  0  0  0  0  0
    4.6933   -1.3111    1.3421 H   0  0  0  0  0  0  0  0  0  0  0  0
    3.3260   -0.4125    2.0627 H   0  0  0  0  0  0  0  0  0  0  0  0
    3.6535   -0.9541   -0.8897 H   0  0  0  0  0  0  0  0  0  0  0  0
    1.5911   -0.5164   -2.1332 H   0  0  0  0  0  0  0  0  0  0  0  0
   -0.5715    0.3781   -2.2624 H   0  0  0  0  0  0  0  0  0  0  0  0
   -0.1216    1.5755   -0.9835 H   0  0  0  0  0  0  0  0  0  0  0  0
   -1.2086   -1.2413   -0.6056 H   0  0  0  0  0  0  0  0  0  0  0  0
   -0.6731   -0.2598    0.7672 H   0  0  0  0  0  0  0  0  0  0  0  0
   -2.3070    1.5649   -0.1595 H   0  0  0  0  0  0  0  0  0  0  0  0
   -3.9243    0.4314   -1.5903 H   0  0  0  0  0  0  0  0  0  0  0  0
   -3.6655   -0.1987    2.7879 H   0  0  0  0  0  0  0  0  0  0  0  0
  1  2  1  0
  2  3  1  0
  3  4  2  0
  3  5  1  0
  5  6  1  0
  6  7  1  0
  7  8  1  0
  8  9  1  0
  8 10  1  0
 10 11  2  0
 10 12  1  0
  1 13  1  0
  1 14  1  0
  1 15  1  0
  2 16  1  0
  5 17  1  0
  6 18  1  0
  6 19  1  0
  7 20  1  0
  7 21  1  0
  8 22  1  1
  9 23  1  0
 12 24  1  0
M  END
$$$$

     RDKit          3D

 24 23  0  0  0  0  0  0  0  0999 V2000
    4.2962   -0.1991   -0.0394 C   0  0  0  0  0  0  0  0  0  0  0  0
    3.1311    0.4457    0.5335 N   0  0  0  0  0  0  0  0  0  0  0  0
    1.8298   -0.1227    0.3330 C   0  0  0  0  0  0  0  0  0  0  0  0
    1.7707   -1.1732   -0.3445 O   0  0  0  0  0  0  0  0  0  0  0  0
    0.7143    0.5143    0.8943 N   0  0  0  0  0  0  0  0  0  0  0  0
   -0.6134   -0.0099    0.7185 C   0  0  0  0  0  0  0  0  0  0  0  0
   -0.9385   -0.0274   -0.7544 C   0  0  0  0  0  0  0  0  0  0  0  0
   -2.3483   -0.5779   -0.9787 C   0  0  1  0  0  0  0  0  0  0  0  0
   -2.3912   -1.8737   -0.4702 O   0  0  0  0  0  0  0  0  0  0  0  0
   -3.3209    0.2405   -0.2273 C   0  0  0  0  0  0  0  0  0  0  0  0
   -4.0444   -0.1880    0.7017 O   0  0  0  0  0  0  0  0  0  0  0  0
   -3.4423    1.5819   -0.5756 O   0  0  0  0  0  0  0  0  0  0  0  0
    5.1318   -0.1377    0.6839 H   0  0  0  0  0  0  0  0  0  0  0  0
    4.5928    0.3039   -0.9880 H   0  0  0  0  0  0  0  0  0  0  0  0
    4.0670   -1.2807   -0.2039 H   0  0  0  0  0  0  0  0  0  0  0  0
    3.2206    1.3064    1.0832 H   0  0  0  0  0  0  0  0  0  0  0  0
    0.8231    1.3932    1.4589 H   0  0  0  0  0  0  0  0  0  0  0  0
   -1.3824    0.6608    1.1886 H   0  0  0  0  0  0  0  0  0  0  0  0
   -0.6874   -1.0435    1.1482 H   0  0  0  0  0  0  0  0  0  0  0  0
   -0.2030   -0.5700   -1.3464 H   0  0  0  0  0  0  0  0  0  0  0  0
   -0.8871    1.0429   -1.0932 H   0  0  0  0  0  0  0  0  0  0  0  0
   -2.5653   -0.6254   -2.0554 H   0  0  0  0  0  0  0  0  0  0  0  0
   -3.0477   -1.9613    0.2551 H   0  0  0  0  0  0  0  0  0  0  0  0
   -3.7054    2.3009    0.0754 H   0  0  0  0  0  0  0  0  0  0  0  0
  1  2  1  0
  2  3  1  0
  3  4  2  0
  3  5  1  0
  5  6  1  0
  6  7  1  0
  7  8  1  0
  8  9  1  0
  8 10  1  0
 10 11  2  0
 10 12  1  0
  1 13  1  0
  1 14  1  0
  1 15  1  0
  2 16  1  0
  5 17  1  0
  6 18  1  0
  6 19  1  0
  7 20  1  0
  7 21  1  0
  8 22  1  6
  9 23  1  0
 12 24  1  0
M  END
$$$$

     RDKit          3D

 24 23  0  0  0  0  0  0  0  0999 V2000
   -4.4522    0.8684   -0.3271 C   0  0  0  0  0  0  0  0  0  0  0  0
   -3.0025    0.9628   -0.3015 N   0  0  0  0  0  0  0  0  0  0  0  0
   -2.1717    0.0215    0.3445 C   0  0  0  0  0  0  0  0  0  0  0  0
   -2.6941   -0.9520    0.9310 O   0  0  0  0  0  0  0  0  0  0  0  0
   -0.7495    0.1197    0.3661 N   0  0  0  0  0  0  0  0  0  0  0  0
    0.0634   -0.8595    1.0352 C   0  0  0  0  0  0  0  0  0  0  0  0
    1.5226   -0.6028    0.9563 C   0  0  0  0  0  0  0  0  0  0  0  0
    2.1155   -0.5597   -0.4054 C   0  0  1  0  0  0  0  0  0  0  0  0
    1.6088    0.4005   -1.2445 O   0  0  0  0  0  0  0  0  0  0  0  0
    3.5871   -0.4133   -0.2618 C   0  0  0  0  0  0  0  0  0  0  0  0
    4.1998   -1.2231    0.4784 O   0  0  0  0  0  0  0  0  0  0  0  0
    4.3301    0.5667   -0.8973 O   0  0  0  0  0  0  0  0  0  0  0  0
   -4.8531    1.5785   -1.0625 H   0  0  0  0  0  0  0  0  0  0  0  0
   -4.8209    1.0602    0.6979 H   0  0  0  0  0  0  0  0  0  0  0  0
   -4.6779   -0.1884   -0.6448 H   0  0  0  0  0  0  0  0  0  0  0  0
   -2.5295    1.7670   -0.7836 H   0  0  0  0  0  0  0  0  0  0  0  0
   -0.3643    0.9627   -0.1446 H   0  0  0  0  0  0  0  0  0  0  0  0
   -0.1388   -1.8763    0.6391 H   0  0  0  0  0  0  0  0  0  0  0  0
   -0.2249   -0.8845    2.1030 H   0  0  0  0  0  0  0  0  0  0  0  0
    1.8363    0.3118    1.4984 H   0  0  0  0  0  0  0  0  0  0  0  0
    2.0320   -1.4469    1.5035 H   0  0  0  0  0  0  0  0  0  0  0  0
    1.9453   -1.5479   -0.8837 H   0  0  0  0  0  0  0  0  0  0  0  0
    2.2866    0.9353   -1.7135 H   0  0  0  0  0  0  0  0  0  0  0  0
    5.1518    0.9993   -0.4570 H   0  0  0  0  0  0  0  0  0  0  0  0
  1  2  1  0
  2  3  1  0
  3  4  2  0
  3  5  1  0
  5  6  1  0
  6  7  1  0
  7  8  1  0
  8  9  1  0
  8 10  1  0
 10 11  2  0
 10 12  1  0
  1 13  1  0
  1 14  1  0
  1 15  1  0
  2 16  1  0
  5 17  1  0
  6 18  1  0
  6 19  1  0
  7 20  1  0
  7 21  1  0
  8 22  1  6
  9 23  1  0
 12 24  1  0
M  END
$$$$

     RDKit          3D

 24 23  0  0  0  0  0  0  0  0999 V2000
   -4.0492    0.9567    0.6370 C   0  0  0  0  0  0  0  0  0  0  0  0
   -3.1580    0.0823   -0.0641 N   0  0  0  0  0  0  0  0  0  0  0  0
   -1.7366    0.2027   -0.0411 C   0  0  0  0  0  0  0  0  0  0  0  0
   -1.2553    1.1502    0.6498 O   0  0  0  0  0  0  0  0  0  0  0  0
   -0.8906   -0.6900   -0.7538 N   0  0  0  0  0  0  0  0  0  0  0  0
    0.5325   -0.5739   -0.7339 C   0  0  0  0  0  0  0  0  0  0  0  0
    1.0674   -0.7044    0.6753 C   0  0  0  0  0  0  0  0  0  0  0  0
    2.5658   -0.5828    0.7007 C   0  0  1  0  0  0  0  0  0  0  0  0
    3.1627   -1.5623   -0.0645 O   0  0  0  0  0  0  0  0  0  0  0  0
    3.0678    0.7331    0.3276 C   0  0  0  0  0  0  0  0  0  0  0  0
    3.9267    0.8186   -0.5846 O   0  0  0  0  0  0  0  0  0  0  0  0
    2.6650    1.9263    0.9115 O   0  0  0  0  0  0  0  0  0  0  0  0
   -4.6212    1.5440   -0.1269 H   0  0  0  0  0  0  0  0  0  0  0  0
   -3.5439    1.6052    1.3759 H   0  0  0  0  0  0  0  0  0  0  0  0
   -4.8117    0.3390    1.1658 H   0  0  0  0  0  0  0  0  0  0  0  0
   -3.5521   -0.6881   -0.6258 H   0  0  0  0  0  0  0  0  0  0  0  0
   -1.3289   -1.4548   -1.3093 H   0  0  0  0  0  0  0  0  0  0  0  0
    0.7986    0.4008   -1.1895 H   0  0  0  0  0  0  0  0  0  0  0  0
    0.9974   -1.3875   -1.3223 H   0  0  0  0  0  0  0  0  0  0  0  0
    0.6476    0.0086    1.3809 H   0  0  0  0  0  0  0  0  0  0  0  0
    0.8091   -1.7246    1.0261 H   0  0  0  0  0  0  0  0  0  0  0  0
    2.8805   -0.7712    1.7665 H   0  0  0  0  0  0  0  0  0  0  0  0
    3.1286   -2.4397    0.4119 H   0  0  0  0  0  0  0  0  0  0  0  0
    2.6979    2.8117    0.4092 H   0  0  0  0  0  0  0  0  0  0  0  0
  1  2  1  0
  2  3  1  0
  3  4  2  0
  3  5  1  0
  5  6  1  0
  6  7  1  0
  7  8  1  0
  8  9  1  0
  8 10  1  0
 10 11  2  0
 10 12  1  0
  1 13  1  0
  1 14  1  0
  1 15  1  0
  2 16  1  0
  5 17  1  0
  6 18  1  0
  6 19  1  0
  7 20  1  0
  7 21  1  0
  8 22  1  1
  9 23  1  0
 12 24  1  0
M  END
$$$$
