
     RDKit          3D

 26 26  0  0  0  0  0  0  0  0999 V2000
    1.4549   -2.2051    0.1543 C   0  0  0  0  0  0  0  0  0  0  0  0
    1.2785   -0.7141   -0.0950 C   0  0  2  0  0  0  0  0  0  0  0  0
    2.4005   -0.0401    0.5837 C   0  0  0  0  0  0  0  0  0  0  0  0
    2.5606    1.3545    0.4594 N   0  0  0  0  0  0  0  0  0  0  0  0
    3.4575   -0.8836    1.4777 S   0  0  0  0  0  0  0  0  0  0  0  0
    0.0442   -0.2306    0.4902 N   0  0  0  0  0  0  0  0  0  0  0  0
   -1.1180   -0.9059   -0.0841 C   0  0  0  0  0  0  0  0  0  0  0  0
   -2.2207    0.1163    0.2502 C   0  0  2  0  0  0  0  0  0  0  0  0
   -3.4061   -0.1840   -0.3632 O   0  0  0  0  0  0  0  0  0  0  0  0
   -1.5451    1.3514   -0.2898 C   0  0  2  0  0  0  0  0  0  0  0  0
   -1.6048    1.2999   -1.6866 O   0  0  0  0  0  0  0  0  0  0  0  0
   -0.1243    1.1586    0.1742 C   0  0  0  0  0  0  0  0  0  0  0  0
    2.5399   -2.4157    0.0151 H   0  0  0  0  0  0  0  0  0  0  0  0
    1.1872   -2.5041    1.1648 H   0  0  0  0  0  0  0  0  0  0  0  0
    0.9176   -2.7387   -0.6466 H   0  0  0  0  0  0  0  0  0  0  0  0
    1.3128   -0.5283   -1.1696 H   0  0  0  0  0  0  0  0  0  0  0  0
    2.3761    2.0529    1.2183 H   0  0  0  0  0  0  0  0  0  0  0  0
    2.8915    1.7607   -0.4516 H   0  0  0  0  0  0  0  0  0  0  0  0
   -1.3356   -1.8233    0.4660 H   0  0  0  0  0  0  0  0  0  0  0  0
   -1.0479   -1.0166   -1.1630 H   0  0  0  0  0  0  0  0  0  0  0  0
   -2.3026    0.1894    1.3627 H   0  0  0  0  0  0  0  0  0  0  0  0
   -3.9093    0.6832   -0.4739 H   0  0  0  0  0  0  0  0  0  0  0  0
   -1.9995    2.2815    0.1043 H   0  0  0  0  0  0  0  0  0  0  0  0
   -2.3548    0.7199   -1.9473 H   0  0  0  0  0  0  0  0  0  0  0  0
    0.0175    1.7304    1.1116 H   0  0  0  0  0  0  0  0  0  0  0  0
    0.5298    1.4916   -0.6619 H   0  0  0  0  0  0  0  0  0  0  0  0
  1  2  1  0
  2  3  1  0
  3  4  1  0
  3  5  2  0
  2  6  1  0
  6  7  1  0
  7  8  1  0
  8  9  1  0
  8 10  1  0
 10 11  1  0
 10 12  1  0
 12  6  1  0
  1 13  1  0
  1 14  1  0
  1 15  1  0
  2 16  1  6
  4 17  1  0
  4 18  1  0
  7 19  1  0
  7 20  1  0
  8 21  1  1
  9 22  1  0
 10 23  1  1
 11 24  1  0
 12 25  1  0
 12 26  1  0
M  END
$$$$

     RDKit          3D

 26 26  0  0  0  0  0  0  0  0999 V2000
   -2.0412   -1.1902   -0.5817 C   0  0  0  0  0  0  0  0  0  0  0  0
   -1.2055   -0.0846    0.0246 C   0  0  2  0  0  0  0  0  0  0  0  0
   -2.0884    1.0997    0.1398 C   0  0  0  0  0  0  0  0  0  0  0  0
   -3.2486    0.9667    0.9489 N   0  0  0  0  0  0  0  0  0  0  0  0
   -1.7720    2.5070   -0.6178 S   0  0  0  0  0  0  0  0  0  0  0  0
    0.0034    0.1549   -0.7133 N   0  0  0  0  0  0  0  0  0  0  0  0
    0.8095   -1.0432   -0.6676 C   0  0  0  0  0  0  0  0  0  0  0  0
    2.2222   -0.6477   -0.4100 C   0  0  2  0  0  0  0  0  0  0  0  0
    2.7730   -1.2892    0.7131 O   0  0  0  0  0  0  0  0  0  0  0  0
    2.2196    0.8259   -0.1683 C   0  0  2  0  0  0  0  0  0  0  0  0
    2.7995    1.1348    1.0566 O   0  0  0  0  0  0  0  0  0  0  0  0
    0.7661    1.2367   -0.1998 C   0  0  0  0  0  0  0  0  0  0  0  0
   -3.0317   -0.8358   -0.9349 H   0  0  0  0  0  0  0  0  0  0  0  0
   -1.5544   -1.6681   -1.4565 H   0  0  0  0  0  0  0  0  0  0  0  0
   -2.2519   -1.9327    0.2242 H   0  0  0  0  0  0  0  0  0  0  0  0
   -0.8957   -0.3392    1.0710 H   0  0  0  0  0  0  0  0  0  0  0  0
   -4.0670    1.6341    0.8441 H   0  0  0  0  0  0  0  0  0  0  0  0
   -3.3653    0.2279    1.6757 H   0  0  0  0  0  0  0  0  0  0  0  0
    0.6644   -1.5792   -1.6303 H   0  0  0  0  0  0  0  0  0  0  0  0
    0.4901   -1.7387    0.1351 H   0  0  0  0  0  0  0  0  0  0  0  0
    2.8751   -0.9237   -1.2845 H   0  0  0  0  0  0  0  0  0  0  0  0
    2.2900   -2.1591    0.7836 H   0  0  0  0  0  0  0  0  0  0  0  0
    2.8314    1.3197   -0.9561 H   0  0  0  0  0  0  0  0  0  0  0  0
    3.6450    0.6339    1.1796 H   0  0  0  0  0  0  0  0  0  0  0  0
    0.4054    1.5706    0.7727 H   0  0  0  0  0  0  0  0  0  0  0  0
    0.7269    2.1193   -0.9037 H   0  0  0  0  0  0  0  0  0  0  0  0
  1  2  1  0
  2  3  1  0
  3  4  1  0
  3  5  2  0
  2  6  1  0
  6  7  1  0
  7  8  1  0
  8  9  1  0
  8 10  1  0
 10 11  1  0
 10 12  1  0
 12  6  1  0
  1 13  1  0
  1 14  1  0
  1 15  1  0
  2 16  1  1
  4 17  1  0
  4 18  1  0
  7 19  1  0
  7 20  1  0
  8 21  1  6
  9 22  1  0
 10 23  1  6
 11 24  1  0
 12 25  1  0
 12 26  1  0
M  END
$$$$

     RDKit          3D

 26 26  0  0  0  0  0  0  0  0999 V2000
   -1.5551   -1.3077   -1.2361 C   0  0  0  0  0  0  0  0  0  0  0  0
   -1.2429   -0.8496    0.2074 C   0  0  2  0  0  0  0  0  0  0  0  0
   -2.3781   -0.0791    0.6369 C   0  0  0  0  0  0  0  0  0  0  0  0
   -2.8854    1.0988    0.0317 N   0  0  0  0  0  0  0  0  0  0  0  0
   -3.2067   -0.5755    1.9599 S   0  0  0  0  0  0  0  0  0  0  0  0
    0.0144   -0.2732    0.1956 N   0  0  0  0  0  0  0  0  0  0  0  0
    0.3422    0.8635   -0.5243 C   0  0  0  0  0  0  0  0  0  0  0  0
    1.7132    1.2038    0.0891 C   0  0  2  0  0  0  0  0  0  0  0  0
    2.4885    1.9494   -0.7658 O   0  0  0  0  0  0  0  0  0  0  0  0
    2.2985   -0.1897    0.3485 C   0  0  2  0  0  0  0  0  0  0  0  0
    3.2283   -0.5224   -0.6342 O   0  0  0  0  0  0  0  0  0  0  0  0
    1.1291   -1.1448    0.2257 C   0  0  0  0  0  0  0  0  0  0  0  0
   -1.0136   -2.2656   -1.4447 H   0  0  0  0  0  0  0  0  0  0  0  0
   -1.1089   -0.5543   -1.9197 H   0  0  0  0  0  0  0  0  0  0  0  0
   -2.6325   -1.3735   -1.3986 H   0  0  0  0  0  0  0  0  0  0  0  0
   -1.2099   -1.7994    0.7788 H   0  0  0  0  0  0  0  0  0  0  0  0
   -3.1842    1.1250   -0.9499 H   0  0  0  0  0  0  0  0  0  0  0  0
   -2.9519    1.9657    0.6022 H   0  0  0  0  0  0  0  0  0  0  0  0
   -0.2632    1.7524   -0.4214 H   0  0  0  0  0  0  0  0  0  0  0  0
    0.5767    0.6193   -1.5934 H   0  0  0  0  0  0  0  0  0  0  0  0
    1.5253    1.6946    1.0716 H   0  0  0  0  0  0  0  0  0  0  0  0
    1.9909    2.2799   -1.5332 H   0  0  0  0  0  0  0  0  0  0  0  0
    2.7110   -0.2737    1.3600 H   0  0  0  0  0  0  0  0  0  0  0  0
    3.3958    0.2076   -1.2747 H   0  0  0  0  0  0  0  0  0  0  0  0
    1.1575   -1.6952   -0.7552 H   0  0  0  0  0  0  0  0  0  0  0  0
    1.0609   -1.8565    1.0653 H   0  0  0  0  0  0  0  0  0  0  0  0
  1  2  1  0
  2  3  1  0
  3  4  1  0
  3  5  2  0
  2  6  1  0
  6  7  1  0
  7  8  1  0
  8  9  1  0
  8 10  1  0
 10 11  1  0
 10 12  1  0
 12  6  1  0
  1 13  1  0
  1 14  1  0
  1 15  1  0
  2 16  1  1
  4 17  1  0
  4 18  1  0
  7 19  1  0
  7 20  1  0
  8 21  1  1
  9 22  1  0
 10 23  1  1
 11 24  1  0
 12 25  1  0
 12 26  1  0
M  END
$$$$

     RDKit          3D

 26 26  0  0  0  0  0  0  0  0999 V2000
    1.9190   -1.5404    0.1180 C   0  0  0  0  0  0  0  0  0  0  0  0
    1.4599   -0.2292   -0.4666 C   0  0  2  0  0  0  0  0  0  0  0  0
    2.3319    0.8457   -0.0197 C   0  0  0  0  0  0  0  0  0  0  0  0
    2.0984    2.1791   -0.4119 N   0  0  0  0  0  0  0  0  0  0  0  0
    3.5950    0.5244    0.9420 S   0  0  0  0  0  0  0  0  0  0  0  0
    0.0687    0.0185   -0.3111 N   0  0  0  0  0  0  0  0  0  0  0  0
   -0.8065   -0.8937   -0.9528 C   0  0  0  0  0  0  0  0  0  0  0  0
   -2.1703   -0.5865   -0.3330 C   0  0  2  0  0  0  0  0  0  0  0  0
   -3.0376   -0.0975   -1.3065 O   0  0  0  0  0  0  0  0  0  0  0  0
   -1.9086    0.4607    0.7305 C   0  0  2  0  0  0  0  0  0  0  0  0
   -1.9714    1.7037    0.1169 O   0  0  0  0  0  0  0  0  0  0  0  0
   -0.4217    0.1826    1.0092 C   0  0  0  0  0  0  0  0  0  0  0  0
    3.0140   -1.6290   -0.1355 H   0  0  0  0  0  0  0  0  0  0  0  0
    1.8578   -1.6136    1.2007 H   0  0  0  0  0  0  0  0  0  0  0  0
    1.4443   -2.4072   -0.4179 H   0  0  0  0  0  0  0  0  0  0  0  0
    1.6313   -0.3362   -1.5811 H   0  0  0  0  0  0  0  0  0  0  0  0
    1.6626    2.4573   -1.3170 H   0  0  0  0  0  0  0  0  0  0  0  0
    2.3677    2.9766    0.2212 H   0  0  0  0  0  0  0  0  0  0  0  0
   -0.6063   -1.9586   -0.7432 H   0  0  0  0  0  0  0  0  0  0  0  0
   -0.8611   -0.6782   -2.0387 H   0  0  0  0  0  0  0  0  0  0  0  0
   -2.5935   -1.4654    0.1937 H   0  0  0  0  0  0  0  0  0  0  0  0
   -3.4581   -0.8989   -1.7362 H   0  0  0  0  0  0  0  0  0  0  0  0
   -2.5197    0.3629    1.6261 H   0  0  0  0  0  0  0  0  0  0  0  0
   -2.6692    2.2941    0.4475 H   0  0  0  0  0  0  0  0  0  0  0  0
   -0.0575    1.0602    1.5583 H   0  0  0  0  0  0  0  0  0  0  0  0
   -0.3688   -0.7315    1.6431 H   0  0  0  0  0  0  0  0  0  0  0  0
  1  2  1  0
  2  3  1  0
  3  4  1  0
  3  5  2  0
  2  6  1  0
  6  7  1  0
  7  8  1  0
  8  9  1  0
  8 10  1  0
 10 11  1  0
 10 12  1  0
 12  6  1  0
  1 13  1  0
  1 14  1  0
  1 15  1  0
  2 16  1  6
  4 17  1  0
  4 18  1  0
  7 19  1  0
  7 20  1  0
  8 21  1  1
  9 22  1  0
 10 23  1  1
 11 24  1  0
 12 25  1  0
 12 26  1  0
M  END
$$$$

     RDKit          3D

 26 26  0  0  0  0  0  0  0  0999 V2000
    1.8484   -0.8872   -0.9688 C   0  0  0  0  0  0  0  0  0  0  0  0
    1.1588    0.3762   -0.4313 C   0  0  2  0  0  0  0  0  0  0  0  0
    2.0348    0.9197    0.5990 C   0  0  0  0  0  0  0  0  0  0  0  0
    3.3566    1.3039    0.2631 N   0  0  0  0  0  0  0  0  0  0  0  0
    1.5491    1.1059    2.1372 S   0  0  0  0  0  0  0  0  0  0  0  0
   -0.1480    0.0925   -0.1190 N   0  0  0  0  0  0  0  0  0  0  0  0
   -0.5417   -0.8138    0.8579 C   0  0  0  0  0  0  0  0  0  0  0  0
   -2.0110   -1.0151    0.5239 C   0  0  2  0  0  0  0  0  0  0  0  0
   -2.0952   -1.8153   -0.6144 O   0  0  0  0  0  0  0  0  0  0  0  0
   -2.4110    0.4057    0.1839 C   0  0  2  0  0  0  0  0  0  0  0  0
   -3.5874    0.4997   -0.5181 O   0  0  0  0  0  0  0  0  0  0  0  0
   -1.2141    0.8130   -0.6856 C   0  0  0  0  0  0  0  0  0  0  0  0
    1.3710   -1.1875   -1.9339 H   0  0  0  0  0  0  0  0  0  0  0  0
    1.7060   -1.6765   -0.2136 H   0  0  0  0  0  0  0  0  0  0  0  0
    2.9153   -0.6504   -1.0925 H   0  0  0  0  0  0  0  0  0  0  0  0
    1.1761    1.0833   -1.3097 H   0  0  0  0  0  0  0  0  0  0  0  0
    3.6067    2.3217    0.2424 H   0  0  0  0  0  0  0  0  0  0  0  0
    4.1162    0.6226    0.0303 H   0  0  0  0  0  0  0  0  0  0  0  0
   -0.0241   -1.7948    0.8447 H   0  0  0  0  0  0  0  0  0  0  0  0
   -0.5283   -0.4419    1.9123 H   0  0  0  0  0  0  0  0  0  0  0  0
   -2.5897   -1.4299    1.3598 H   0  0  0  0  0  0  0  0  0  0  0  0
   -1.3146   -2.4215   -0.6886 H   0  0  0  0  0  0  0  0  0  0  0  0
   -2.3858    0.9908    1.1173 H   0  0  0  0  0  0  0  0  0  0  0  0
   -3.4871    1.2753   -1.1609 H   0  0  0  0  0  0  0  0  0  0  0  0
   -1.3861    0.4278   -1.7274 H   0  0  0  0  0  0  0  0  0  0  0  0
   -1.1149    1.8957   -0.6758 H   0  0  0  0  0  0  0  0  0  0  0  0
  1  2  1  0
  2  3  1  0
  3  4  1  0
  3  5  2  0
  2  6  1  0
  6  7  1  0
  7  8  1  0
  8  9  1  0
  8 10  1  0
 10 11  1  0
 10 12  1  0
 12  6  1  0
  1 13  1  0
  1 14  1  0
  1 15  1  0
  2 16  1  6
  4 17  1  0
  4 18  1  0
  7 19  1  0
  7 20  1  0
  8 21  1  1
  9 22  1  0
 10 23  1  1
 11 24  1  0
 12 25  1  0
 12 26  1  0
M  END
$$$$

     RDKit          3D

 26 26  0  0  0  0  0  0  0  0999 V2000
    1.3659   -1.7261   -0.6158 C   0  0  0  0  0  0  0  0  0  0  0  0
    1.4034   -0.2754   -0.2777 C   0  0  2  0  0  0  0  0  0  0  0  0
    2.3306    0.0277    0.8448 C   0  0  0  0  0  0  0  0  0  0  0  0
    2.5035    1.4212    1.1650 N   0  0  0  0  0  0  0  0  0  0  0  0
    3.1237   -1.0929    1.6984 S   0  0  0  0  0  0  0  0  0  0  0  0
    0.1483    0.3391    0.0087 N   0  0  0  0  0  0  0  0  0  0  0  0
   -0.7994    0.3781   -1.0692 C   0  0  0  0  0  0  0  0  0  0  0  0
   -2.1237    0.5605   -0.3065 C   0  0  2  0  0  0  0  0  0  0  0  0
   -2.0667    1.7900    0.3032 O   0  0  0  0  0  0  0  0  0  0  0  0
   -1.8851   -0.5287    0.7525 C   0  0  2  0  0  0  0  0  0  0  0  0
   -2.8195   -0.5286    1.7499 O   0  0  0  0  0  0  0  0  0  0  0  0
   -0.4928   -0.1073    1.2005 C   0  0  0  0  0  0  0  0  0  0  0  0
    1.3807   -2.3936    0.2711 H   0  0  0  0  0  0  0  0  0  0  0  0
    2.3428   -1.9484   -1.1451 H   0  0  0  0  0  0  0  0  0  0  0  0
    0.5949   -1.9323   -1.3519 H   0  0  0  0  0  0  0  0  0  0  0  0
    1.8285    0.2602   -1.1782 H   0  0  0  0  0  0  0  0  0  0  0  0
    1.7975    1.8497    1.8050 H   0  0  0  0  0  0  0  0  0  0  0  0
    3.2977    1.9555    0.7709 H   0  0  0  0  0  0  0  0  0  0  0  0
   -0.8947   -0.6019   -1.5587 H   0  0  0  0  0  0  0  0  0  0  0  0
   -0.6290    1.2163   -1.7554 H   0  0  0  0  0  0  0  0  0  0  0  0
   -2.9911    0.3606   -0.9275 H   0  0  0  0  0  0  0  0  0  0  0  0
   -1.4787    2.4429   -0.1608 H   0  0  0  0  0  0  0  0  0  0  0  0
   -1.8196   -1.4857    0.1980 H   0  0  0  0  0  0  0  0  0  0  0  0
   -3.5043    0.1624    1.5894 H   0  0  0  0  0  0  0  0  0  0  0  0
    0.0157   -0.9056    1.7616 H   0  0  0  0  0  0  0  0  0  0  0  0
   -0.6287    0.7620    1.8750 H   0  0  0  0  0  0  0  0  0  0  0  0
  1  2  1  0
  2  3  1  0
  3  4  1  0
  3  5  2  0
  2  6  1  0
  6  7  1  0
  7  8  1  0
  8  9  1  0
  8 10  1  0
 10 11  1  0
 10 12  1  0
 12  6  1  0
  1 13  1  0
  1 14  1  0
  1 15  1  0
  2 16  1  6
  4 17  1  0
  4 18  1  0
  7 19  1  0
  7 20  1  0
  8 21  1  6
  9 22  1  0
 10 23  1  6
 11 24  1  0
 12 25  1  0
 12 26  1  0
M  END
$$$$

     RDKit          3D

 26 26  0  0  0  0  0  0  0  0999 V2000
    1.6144   -0.8231    1.1709 C   0  0  0  0  0  0  0  0  0  0  0  0
    1.3820   -0.6837   -0.3137 C   0  0  2  0  0  0  0  0  0  0  0  0
    2.3925    0.1839   -0.9189 C   0  0  0  0  0  0  0  0  0  0  0  0
    2.5462    1.5194   -0.4592 N   0  0  0  0  0  0  0  0  0  0  0  0
    3.3861   -0.2933   -2.1227 S   0  0  0  0  0  0  0  0  0  0  0  0
    0.0313   -0.3555   -0.6633 N   0  0  0  0  0  0  0  0  0  0  0  0
   -0.4363    0.9193   -0.1770 C   0  0  0  0  0  0  0  0  0  0  0  0
   -1.9413    0.7739   -0.4612 C   0  0  2  0  0  0  0  0  0  0  0  0
   -2.6823    1.4912    0.4749 O   0  0  0  0  0  0  0  0  0  0  0  0
   -2.2058   -0.7172   -0.3370 C   0  0  2  0  0  0  0  0  0  0  0  0
   -3.2093   -0.9797    0.5884 O   0  0  0  0  0  0  0  0  0  0  0  0
   -0.8531   -1.2499    0.0911 C   0  0  0  0  0  0  0  0  0  0  0  0
    1.4344   -1.8817    1.5149 H   0  0  0  0  0  0  0  0  0  0  0  0
    1.0458   -0.1357    1.7930 H   0  0  0  0  0  0  0  0  0  0  0  0
    2.7128   -0.6784    1.3103 H   0  0  0  0  0  0  0  0  0  0  0  0
    1.5459   -1.7165   -0.7408 H   0  0  0  0  0  0  0  0  0  0  0  0
    2.7862    2.3327   -1.0647 H   0  0  0  0  0  0  0  0  0  0  0  0
    2.4157    1.7138    0.5565 H   0  0  0  0  0  0  0  0  0  0  0  0
   -0.3689    1.0358    0.9235 H   0  0  0  0  0  0  0  0  0  0  0  0
   -0.0108    1.7807   -0.7069 H   0  0  0  0  0  0  0  0  0  0  0  0
   -2.1358    1.0607   -1.4999 H   0  0  0  0  0  0  0  0  0  0  0  0
   -2.8149    2.4048    0.1143 H   0  0  0  0  0  0  0  0  0  0  0  0
   -2.4351   -1.1879   -1.3133 H   0  0  0  0  0  0  0  0  0  0  0  0
   -2.7507   -1.2063    1.4436 H   0  0  0  0  0  0  0  0  0  0  0  0
   -0.7435   -1.0058    1.1656 H   0  0  0  0  0  0  0  0  0  0  0  0
   -0.7056   -2.3012   -0.1725 H   0  0  0  0  0  0  0  0  0  0  0  0
  1  2  1  0
  2  3  1  0
  3  4  1  0
  3  5  2  0
  2  6  1  0
  6  7  1  0
  7  8  1  0
  8  9  1  0
  8 10  1  0
 10 11  1  0
 10 12  1  0
 12  6  1  0
  1 13  1  0
  1 14  1  0
  1 15  1  0
  2 16  1  6
  4 17  1  0
  4 18  1  0
  7 19  1  0
  7 20  1  0
  8 21  1  6
  9 22  1  0
 10 23  1  6
 11 24  1  0
 12 25  1  0
 12 26  1  0
M  END
$$$$

     RDKit          3D

 26 26  0  0  0  0  0  0  0  0999 V2000
    1.5953    1.9211    0.0574 C   0  0  0  0  0  0  0  0  0  0  0  0
    1.3495    0.4343    0.1367 C   0  0  2  0  0  0  0  0  0  0  0  0
    2.5323   -0.2779   -0.3236 C   0  0  0  0  0  0  0  0  0  0  0  0
    2.6227   -1.7031   -0.3879 N   0  0  0  0  0  0  0  0  0  0  0  0
    3.8364    0.5816   -0.7956 S   0  0  0  0  0  0  0  0  0  0  0  0
    0.1521    0.1550   -0.6136 N   0  0  0  0  0  0  0  0  0  0  0  0
   -0.3296   -1.1789   -0.4959 C   0  0  0  0  0  0  0  0  0  0  0  0
   -1.7301   -1.1336    0.0531 C   0  0  2  0  0  0  0  0  0  0  0  0
   -2.6363   -1.8718   -0.7203 O   0  0  0  0  0  0  0  0  0  0  0  0
   -2.1341    0.2986    0.0064 C   0  0  2  0  0  0  0  0  0  0  0  0
   -3.0656    0.5658   -1.0063 O   0  0  0  0  0  0  0  0  0  0  0  0
   -0.8638    1.0737   -0.2309 C   0  0  0  0  0  0  0  0  0  0  0  0
    2.5310    2.1662   -0.4606 H   0  0  0  0  0  0  0  0  0  0  0  0
    1.6618    2.3308    1.0886 H   0  0  0  0  0  0  0  0  0  0  0  0
    0.7927    2.4553   -0.5243 H   0  0  0  0  0  0  0  0  0  0  0  0
    1.1667    0.1411    1.1925 H   0  0  0  0  0  0  0  0  0  0  0  0
    3.0572   -2.2186    0.3934 H   0  0  0  0  0  0  0  0  0  0  0  0
    2.2677   -2.2677   -1.1956 H   0  0  0  0  0  0  0  0  0  0  0  0
    0.3081   -1.8459    0.1199 H   0  0  0  0  0  0  0  0  0  0  0  0
   -0.3814   -1.6254   -1.5100 H   0  0  0  0  0  0  0  0  0  0  0  0
   -1.7892   -1.5568    1.0909 H   0  0  0  0  0  0  0  0  0  0  0  0
   -2.7283   -1.4972   -1.6226 H   0  0  0  0  0  0  0  0  0  0  0  0
   -2.6268    0.5556    0.9661 H   0  0  0  0  0  0  0  0  0  0  0  0
   -3.8711    1.0251   -0.6608 H   0  0  0  0  0  0  0  0  0  0  0  0
   -0.6442    1.6424    0.7058 H   0  0  0  0  0  0  0  0  0  0  0  0
   -1.0730    1.8305   -1.0303 H   0  0  0  0  0  0  0  0  0  0  0  0
  1  2  1  0
  2  3  1  0
  3  4  1  0
  3  5  2  0
  2  6  1  0
  6  7  1  0
  7  8  1  0
  8  9  1  0
  8 10  1  0
 10 11  1  0
 10 12  1  0
 12  6  1  0
  1 13  1  0
  1 14  1  0
  1 15  1  0
  2 16  1  1
  4 17  1  0
  4 18  1  0
  7 19  1  0
  7 20  1  0
  8 21  1  1
  9 22  1  0
 10 23  1  1
 11 24  1  0
 12 25  1  0
 12 26  1  0
M  END
$$$$
