
     RDKit          3D

 29 30  0  0  0  0  0  0  0  0999 V2000
   -3.8457    1.1845    1.2803 C   0  0  0  0  0  0  0  0  0  0  0  0
   -3.1107    0.2103    0.5082 N   0  0  0  0  0  0  0  0  0  0  0  0
   -3.5679   -0.9825    0.0686 C   0  0  0  0  0  0  0  0  0  0  0  0
   -2.5085   -1.5455   -0.6142 C   0  0  0  0  0  0  0  0  0  0  0  0
   -1.4476   -0.6980   -0.5761 C   0  0  0  0  0  0  0  0  0  0  0  0
   -0.1069   -0.8650   -1.1612 C   0  0  0  0  0  0  0  0  0  0  0  0
    0.7287    0.2877   -0.8843 N   0  0  0  0  0  0  0  0  0  0  0  0
    0.8993    0.5011    0.5288 C   0  0  0  0  0  0  0  0  0  0  0  0
    2.3641    0.8377    0.7373 C   0  0  1  0  0  0  0  0  0  0  0  0
    2.7829    0.5267    2.0258 O   0  0  0  0  0  0  0  0  0  0  0  0
    2.9947   -0.0738   -0.3045 C   0  0  2  0  0  0  0  0  0  0  0  0
    4.2874    0.3098   -0.6202 O   0  0  0  0  0  0  0  0  0  0  0  0
    2.0356    0.1200   -1.4594 C   0  0  0  0  0  0  0  0  0  0  0  0
   -1.8538    0.3792    0.1261 N   0  0  0  0  0  0  0  0  0  0  0  0
   -3.1635    1.6019    2.0504 H   0  0  0  0  0  0  0  0  0  0  0  0
   -4.1886    2.0119    0.6080 H   0  0  0  0  0  0  0  0  0  0  0  0
   -4.7184    0.7463    1.8061 H   0  0  0  0  0  0  0  0  0  0  0  0
   -4.5453   -1.3947    0.2220 H   0  0  0  0  0  0  0  0  0  0  0  0
   -2.5574   -2.5240   -1.0963 H   0  0  0  0  0  0  0  0  0  0  0  0
    0.3485   -1.8173   -0.8228 H   0  0  0  0  0  0  0  0  0  0  0  0
   -0.2303   -0.9511   -2.2585 H   0  0  0  0  0  0  0  0  0  0  0  0
    0.2317    1.2555    0.9511 H   0  0  0  0  0  0  0  0  0  0  0  0
    0.7562   -0.5076    1.0165 H   0  0  0  0  0  0  0  0  0  0  0  0
    2.4832    1.9063    0.4841 H   0  0  0  0  0  0  0  0  0  0  0  0
    3.7480    0.7232    2.0745 H   0  0  0  0  0  0  0  0  0  0  0  0
    2.9447   -1.0994    0.1156 H   0  0  0  0  0  0  0  0  0  0  0  0
    4.8351   -0.5186   -0.6777 H   0  0  0  0  0  0  0  0  0  0  0  0
    2.3194    1.0918   -1.9436 H   0  0  0  0  0  0  0  0  0  0  0  0
    2.0852   -0.7165   -2.1846 H   0  0  0  0  0  0  0  0  0  0  0  0
  1  2  1  0
  2  3  1  0
  3  4  2  0
  4  5  1  0
  5  6  1  0
  6  7  1  0
  7  8  1  0
  8  9  1  0
  9 10  1  0
  9 11  1  0
 11 12  1  0
 11 13  1  0
  5 14  2  0
 14  2  1  0
 13  7  1  0
  1 15  1  0
  1 16  1  0
  1 17  1  0
  3 18  1  0
  4 19  1  0
  6 20  1  0
  6 21  1  0
  8 22  1  0
  8 23  1  0
  9 24  1  6
 10 25  1  0
 11 26  1  1
 12 27  1  0
 13 28  1  0
 13 29  1  0
M  END
$$$$

     RDKit          3D

 29 30  0  0  0  0  0  0  0  0999 V2000
    4.2302   -1.2854    0.8384 C   0  0  0  0  0  0  0  0  0  0  0  0
    3.2724   -0.3892    0.1978 N   0  0  0  0  0  0  0  0  0  0  0  0
    3.4472    0.1614   -1.0141 C   0  0  0  0  0  0  0  0  0  0  0  0
    2.2969    0.9291   -1.2093 C   0  0  0  0  0  0  0  0  0  0  0  0
    1.4855    0.8028   -0.1046 C   0  0  0  0  0  0  0  0  0  0  0  0
    0.1883    1.4203    0.1371 C   0  0  0  0  0  0  0  0  0  0  0  0
   -0.9261    0.6276   -0.3241 N   0  0  0  0  0  0  0  0  0  0  0  0
   -2.1934    1.2269   -0.0902 C   0  0  0  0  0  0  0  0  0  0  0  0
   -3.1318    0.1940    0.4469 C   0  0  1  0  0  0  0  0  0  0  0  0
   -4.3456    0.1947   -0.2753 O   0  0  0  0  0  0  0  0  0  0  0  0
   -2.4205   -1.1013    0.2237 C   0  0  2  0  0  0  0  0  0  0  0  0
   -2.7260   -2.0186    1.2009 O   0  0  0  0  0  0  0  0  0  0  0  0
   -0.9430   -0.6965    0.2480 C   0  0  0  0  0  0  0  0  0  0  0  0
    2.1259   -0.0191    0.7381 N   0  0  0  0  0  0  0  0  0  0  0  0
    5.2503   -0.8269    0.8660 H   0  0  0  0  0  0  0  0  0  0  0  0
    3.9413   -1.4698    1.8936 H   0  0  0  0  0  0  0  0  0  0  0  0
    4.2549   -2.2574    0.3134 H   0  0  0  0  0  0  0  0  0  0  0  0
    4.2827    0.0393   -1.6825 H   0  0  0  0  0  0  0  0  0  0  0  0
    2.1363    1.5039   -2.1066 H   0  0  0  0  0  0  0  0  0  0  0  0
    0.0124    1.6573    1.1955 H   0  0  0  0  0  0  0  0  0  0  0  0
    0.1385    2.3922   -0.4130 H   0  0  0  0  0  0  0  0  0  0  0  0
   -2.1737    2.1082    0.5807 H   0  0  0  0  0  0  0  0  0  0  0  0
   -2.5954    1.5787   -1.0797 H   0  0  0  0  0  0  0  0  0  0  0  0
   -3.3775    0.3933    1.5138 H   0  0  0  0  0  0  0  0  0  0  0  0
   -5.1109    0.1559    0.3560 H   0  0  0  0  0  0  0  0  0  0  0  0
   -2.6887   -1.4624   -0.8093 H   0  0  0  0  0  0  0  0  0  0  0  0
   -3.3803   -1.7203    1.8652 H   0  0  0  0  0  0  0  0  0  0  0  0
   -0.6285   -0.7281    1.2921 H   0  0  0  0  0  0  0  0  0  0  0  0
   -0.4218   -1.4105   -0.4165 H   0  0  0  0  0  0  0  0  0  0  0  0
  1  2  1  0
  2  3  1  0
  3  4  2  0
  4  5  1  0
  5  6  1  0
  6  7  1  0
  7  8  1  0
  8  9  1  0
  9 10  1  0
  9 11  1  0
 11 12  1  0
 11 13  1  0
  5 14  2  0
 14  2  1  0
 13  7  1  0
  1 15  1  0
  1 16  1  0
  1 17  1  0
  3 18  1  0
  4 19  1  0
  6 20  1  0
  6 21  1  0
  8 22  1  0
  8 23  1  0
  9 24  1  1
 10 25  1  0
 11 26  1  6
 12 27  1  0
 13 28  1  0
 13 29  1  0
M  END
$$$$

     RDKit          3D

 29 30  0  0  0  0  0  0  0  0999 V2000
    3.8668    0.7528    1.2849 C   0  0  0  0  0  0  0  0  0  0  0  0
    2.8832    0.1322    0.3847 N   0  0  0  0  0  0  0  0  0  0  0  0
    2.7471   -1.1704    0.1384 C   0  0  0  0  0  0  0  0  0  0  0  0
    1.7060   -1.3287   -0.7646 C   0  0  0  0  0  0  0  0  0  0  0  0
    1.2287   -0.0623   -1.0447 C   0  0  0  0  0  0  0  0  0  0  0  0
    0.1176    0.2952   -1.9557 C   0  0  0  0  0  0  0  0  0  0  0  0
   -1.1621    0.3360   -1.3117 N   0  0  0  0  0  0  0  0  0  0  0  0
   -1.2425    1.2888   -0.2394 C   0  0  0  0  0  0  0  0  0  0  0  0
   -2.1237    0.7100    0.8271 C   0  0  1  0  0  0  0  0  0  0  0  0
   -3.1862    1.5663    1.1140 O   0  0  0  0  0  0  0  0  0  0  0  0
   -2.6446   -0.5731    0.2581 C   0  0  2  0  0  0  0  0  0  0  0  0
   -2.6039   -1.5567    1.2687 O   0  0  0  0  0  0  0  0  0  0  0  0
   -1.5994   -0.9350   -0.7950 C   0  0  0  0  0  0  0  0  0  0  0  0
    1.9875    0.7749   -0.3143 N   0  0  0  0  0  0  0  0  0  0  0  0
    3.4579    0.7237    2.3086 H   0  0  0  0  0  0  0  0  0  0  0  0
    4.0153    1.8115    1.0005 H   0  0  0  0  0  0  0  0  0  0  0  0
    4.8332    0.2240    1.2272 H   0  0  0  0  0  0  0  0  0  0  0  0
    3.3181   -2.0020    0.5418 H   0  0  0  0  0  0  0  0  0  0  0  0
    1.3539   -2.2705   -1.1589 H   0  0  0  0  0  0  0  0  0  0  0  0
    0.2847    1.2702   -2.4428 H   0  0  0  0  0  0  0  0  0  0  0  0
    0.0598   -0.4608   -2.7664 H   0  0  0  0  0  0  0  0  0  0  0  0
   -1.7001    2.2204   -0.6306 H   0  0  0  0  0  0  0  0  0  0  0  0
   -0.2518    1.5745    0.1631 H   0  0  0  0  0  0  0  0  0  0  0  0
   -1.5202    0.4952    1.7296 H   0  0  0  0  0  0  0  0  0  0  0  0
   -3.9538    1.0540    1.4683 H   0  0  0  0  0  0  0  0  0  0  0  0
   -3.6489   -0.5006   -0.1860 H   0  0  0  0  0  0  0  0  0  0  0  0
   -3.3284   -1.3396    1.9108 H   0  0  0  0  0  0  0  0  0  0  0  0
   -0.8018   -1.5531   -0.3861 H   0  0  0  0  0  0  0  0  0  0  0  0
   -2.0925   -1.4771   -1.6298 H   0  0  0  0  0  0  0  0  0  0  0  0
  1  2  1  0
  2  3  1  0
  3  4  2  0
  4  5  1  0
  5  6  1  0
  6  7  1  0
  7  8  1  0
  8  9  1  0
  9 10  1  0
  9 11  1  0
 11 12  1  0
 11 13  1  0
  5 14  2  0
 14  2  1  0
 13  7  1  0
  1 15  1  0
  1 16  1  0
  1 17  1  0
  3 18  1  0
  4 19  1  0
  6 20  1  0
  6 21  1  0
  8 22  1  0
  8 23  1  0
  9 24  1  1
 10 25  1  0
 11 26  1  6
 12 27  1  0
 13 28  1  0
 13 29  1  0
M  END
$$$$

     RDKit          3D

 29 30  0  0  0  0  0  0  0  0999 V2000
    4.7654   -0.2814   -0.5155 C   0  0  0  0  0  0  0  0  0  0  0  0
    3.4455   -0.2804    0.1146 N   0  0  0  0  0  0  0  0  0  0  0  0
    2.9627   -1.1382    1.0237 C   0  0  0  0  0  0  0  0  0  0  0  0
    1.6746   -0.7588    1.3394 C   0  0  0  0  0  0  0  0  0  0  0  0
    1.3974    0.3680    0.5808 C   0  0  0  0  0  0  0  0  0  0  0  0
    0.1326    1.1521    0.5653 C   0  0  0  0  0  0  0  0  0  0  0  0
   -0.7967    0.6519   -0.4303 N   0  0  0  0  0  0  0  0  0  0  0  0
   -1.1621   -0.7183   -0.2012 C   0  0  0  0  0  0  0  0  0  0  0  0
   -2.5609   -0.7899   -0.7912 C   0  0  1  0  0  0  0  0  0  0  0  0
   -3.2889   -1.8499   -0.3080 O   0  0  0  0  0  0  0  0  0  0  0  0
   -3.1644    0.5009   -0.2782 C   0  0  2  0  0  0  0  0  0  0  0  0
   -4.1726    0.9822   -1.1017 O   0  0  0  0  0  0  0  0  0  0  0  0
   -1.9932    1.4483   -0.3759 C   0  0  0  0  0  0  0  0  0  0  0  0
    2.5124    0.5938   -0.1308 N   0  0  0  0  0  0  0  0  0  0  0  0
    5.2113    0.7297   -0.3816 H   0  0  0  0  0  0  0  0  0  0  0  0
    4.7031   -0.5557   -1.5846 H   0  0  0  0  0  0  0  0  0  0  0  0
    5.4392   -0.9733    0.0548 H   0  0  0  0  0  0  0  0  0  0  0  0
    3.5267   -1.9764    1.4169 H   0  0  0  0  0  0  0  0  0  0  0  0
    0.9954   -1.2309    2.0373 H   0  0  0  0  0  0  0  0  0  0  0  0
    0.3926    2.1962    0.2496 H   0  0  0  0  0  0  0  0  0  0  0  0
   -0.3169    1.2297    1.5656 H   0  0  0  0  0  0  0  0  0  0  0  0
   -1.2429   -0.9866    0.8720 H   0  0  0  0  0  0  0  0  0  0  0  0
   -0.5413   -1.4429   -0.7552 H   0  0  0  0  0  0  0  0  0  0  0  0
   -2.5303   -0.7494   -1.8944 H   0  0  0  0  0  0  0  0  0  0  0  0
   -4.0830   -1.9687   -0.8658 H   0  0  0  0  0  0  0  0  0  0  0  0
   -3.5250    0.4077    0.7641 H   0  0  0  0  0  0  0  0  0  0  0  0
   -3.7537    1.2462   -1.9597 H   0  0  0  0  0  0  0  0  0  0  0  0
   -2.0355    2.0750   -1.2844 H   0  0  0  0  0  0  0  0  0  0  0  0
   -1.9917    2.1191    0.5039 H   0  0  0  0  0  0  0  0  0  0  0  0
  1  2  1  0
  2  3  1  0
  3  4  2  0
  4  5  1  0
  5  6  1  0
  6  7  1  0
  7  8  1  0
  8  9  1  0
  9 10  1  0
  9 11  1  0
 11 12  1  0
 11 13  1  0
  5 14  2  0
 14  2  1  0
 13  7  1  0
  1 15  1  0
  1 16  1  0
  1 17  1  0
  3 18  1  0
  4 19  1  0
  6 20  1  0
  6 21  1  0
  8 22  1  0
  8 23  1  0
  9 24  1  6
 10 25  1  0
 11 26  1  1
 12 27  1  0
 13 28  1  0
 13 29  1  0
M  END
$$$$

     RDKit          3D

 29 30  0  0  0  0  0  0  0  0999 V2000
    4.0965   -1.1025   -1.1648 C   0  0  0  0  0  0  0  0  0  0  0  0
    3.1210   -0.2275   -0.4912 N   0  0  0  0  0  0  0  0  0  0  0  0
    3.2564    1.1049   -0.3707 C   0  0  0  0  0  0  0  0  0  0  0  0
    2.1470    1.5533    0.3149 C   0  0  0  0  0  0  0  0  0  0  0  0
    1.3365    0.4597    0.6065 C   0  0  0  0  0  0  0  0  0  0  0  0
    0.0408    0.4944    1.3352 C   0  0  0  0  0  0  0  0  0  0  0  0
   -1.0837    0.6789    0.4345 N   0  0  0  0  0  0  0  0  0  0  0  0
   -1.1579   -0.3848   -0.5178 C   0  0  0  0  0  0  0  0  0  0  0  0
   -2.5928   -0.8232   -0.6129 C   0  0  1  0  0  0  0  0  0  0  0  0
   -2.7885   -2.0885   -0.0709 O   0  0  0  0  0  0  0  0  0  0  0  0
   -3.3187    0.1891    0.2315 C   0  0  2  0  0  0  0  0  0  0  0  0
   -3.7209    1.3075   -0.4829 O   0  0  0  0  0  0  0  0  0  0  0  0
   -2.2874    0.5400    1.2697 C   0  0  0  0  0  0  0  0  0  0  0  0
    1.9899   -0.5942    0.0865 N   0  0  0  0  0  0  0  0  0  0  0  0
    5.0809   -0.9817   -0.6242 H   0  0  0  0  0  0  0  0  0  0  0  0
    3.7873   -2.1521   -0.9751 H   0  0  0  0  0  0  0  0  0  0  0  0
    4.1786   -0.8727   -2.2297 H   0  0  0  0  0  0  0  0  0  0  0  0
    4.0923    1.6717   -0.7540 H   0  0  0  0  0  0  0  0  0  0  0  0
    1.9268    2.5862    0.5899 H   0  0  0  0  0  0  0  0  0  0  0  0
   -0.1222   -0.4964    1.8259 H   0  0  0  0  0  0  0  0  0  0  0  0
    0.0320    1.2371    2.1586 H   0  0  0  0  0  0  0  0  0  0  0  0
   -0.5527   -1.2718   -0.2034 H   0  0  0  0  0  0  0  0  0  0  0  0
   -0.8141   -0.0628   -1.5312 H   0  0  0  0  0  0  0  0  0  0  0  0
   -2.9770   -0.8074   -1.6551 H   0  0  0  0  0  0  0  0  0  0  0  0
   -1.9533   -2.5028    0.2453 H   0  0  0  0  0  0  0  0  0  0  0  0
   -4.1914   -0.2755    0.7438 H   0  0  0  0  0  0  0  0  0  0  0  0
   -2.8881    1.7361   -0.8278 H   0  0  0  0  0  0  0  0  0  0  0  0
   -2.1289   -0.3611    1.9016 H   0  0  0  0  0  0  0  0  0  0  0  0
   -2.5085    1.4459    1.8317 H   0  0  0  0  0  0  0  0  0  0  0  0
  1  2  1  0
  2  3  1  0
  3  4  2  0
  4  5  1  0
  5  6  1  0
  6  7  1  0
  7  8  1  0
  8  9  1  0
  9 10  1  0
  9 11  1  0
 11 12  1  0
 11 13  1  0
  5 14  2  0
 14  2  1  0
 13  7  1  0
  1 15  1  0
  1 16  1  0
  1 17  1  0
  3 18  1  0
  4 19  1  0
  6 20  1  0
  6 21  1  0
  8 22  1  0
  8 23  1  0
  9 24  1  6
 10 25  1  0
 11 26  1  1
 12 27  1  0
 13 28  1  0
 13 29  1  0
M  END
$$$$

     RDKit          3D

 29 30  0  0  0  0  0  0  0  0999 V2000
    4.5023    0.7032    0.9628 C   0  0  0  0  0  0  0  0  0  0  0  0
    3.3035    0.1617    0.3242 N   0  0  0  0  0  0  0  0  0  0  0  0
    3.0294   -1.1499    0.2910 C   0  0  0  0  0  0  0  0  0  0  0  0
    1.8399   -1.2964   -0.3798 C   0  0  0  0  0  0  0  0  0  0  0  0
    1.4176   -0.0457   -0.7416 C   0  0  0  0  0  0  0  0  0  0  0  0
    0.1784    0.2699   -1.4849 C   0  0  0  0  0  0  0  0  0  0  0  0
   -0.8884    0.4804   -0.5416 N   0  0  0  0  0  0  0  0  0  0  0  0
   -2.1349    0.7952   -1.2188 C   0  0  0  0  0  0  0  0  0  0  0  0
   -3.1217    0.6935   -0.0494 C   0  0  1  0  0  0  0  0  0  0  0  0
   -4.3433    0.2024   -0.4473 O   0  0  0  0  0  0  0  0  0  0  0  0
   -2.4613   -0.2270    0.9569 C   0  0  2  0  0  0  0  0  0  0  0  0
   -1.9454    0.4825    2.0432 O   0  0  0  0  0  0  0  0  0  0  0  0
   -1.2616   -0.7246    0.1639 C   0  0  0  0  0  0  0  0  0  0  0  0
    2.3517    0.8290   -0.2870 N   0  0  0  0  0  0  0  0  0  0  0  0
    4.9111    1.5616    0.4084 H   0  0  0  0  0  0  0  0  0  0  0  0
    5.2782   -0.0634    1.0546 H   0  0  0  0  0  0  0  0  0  0  0  0
    4.2285    1.0637    1.9812 H   0  0  0  0  0  0  0  0  0  0  0  0
    3.6139   -1.9480    0.7031 H   0  0  0  0  0  0  0  0  0  0  0  0
    1.3609   -2.2482   -0.5652 H   0  0  0  0  0  0  0  0  0  0  0  0
   -0.0691   -0.4770   -2.2570 H   0  0  0  0  0  0  0  0  0  0  0  0
    0.3441    1.2340   -2.0105 H   0  0  0  0  0  0  0  0  0  0  0  0
   -2.1404    1.7867   -1.6754 H   0  0  0  0  0  0  0  0  0  0  0  0
   -2.3740   -0.0343   -1.8914 H   0  0  0  0  0  0  0  0  0  0  0  0
   -3.1851    1.7183    0.3748 H   0  0  0  0  0  0  0  0  0  0  0  0
   -4.5688   -0.6323    0.0256 H   0  0  0  0  0  0  0  0  0  0  0  0
   -3.1222   -1.0562    1.2617 H   0  0  0  0  0  0  0  0  0  0  0  0
   -2.6270    0.4968    2.7490 H   0  0  0  0  0  0  0  0  0  0  0  0
   -1.6484   -1.4612   -0.5612 H   0  0  0  0  0  0  0  0  0  0  0  0
   -0.4680   -1.1145    0.8107 H   0  0  0  0  0  0  0  0  0  0  0  0
  1  2  1  0
  2  3  1  0
  3  4  2  0
  4  5  1  0
  5  6  1  0
  6  7  1  0
  7  8  1  0
  8  9  1  0
  9 10  1  0
  9 11  1  0
 11 12  1  0
 11 13  1  0
  5 14  2  0
 14  2  1  0
 13  7  1  0
  1 15  1  0
  1 16  1  0
  1 17  1  0
  3 18  1  0
  4 19  1  0
  6 20  1  0
  6 21  1  0
  8 22  1  0
  8 23  1  0
  9 24  1  1
 10 25  1  0
 11 26  1  1
 12 27  1  0
 13 28  1  0
 13 29  1  0
M  END
$$$$

     RDKit          3D

 29 30  0  0  0  0  0  0  0  0999 V2000
    4.1950   -0.4379   -1.0815 C   0  0  0  0  0  0  0  0  0  0  0  0
    3.1587    0.0350   -0.1677 N   0  0  0  0  0  0  0  0  0  0  0  0
    3.3576    0.3822    1.1113 C   0  0  0  0  0  0  0  0  0  0  0  0
    2.1389    0.7654    1.6118 C   0  0  0  0  0  0  0  0  0  0  0  0
    1.2180    0.6342    0.5928 C   0  0  0  0  0  0  0  0  0  0  0  0
   -0.2132    0.9631    0.7784 C   0  0  0  0  0  0  0  0  0  0  0  0
   -1.0100    0.7664   -0.3842 N   0  0  0  0  0  0  0  0  0  0  0  0
   -2.3722    1.1162   -0.0841 C   0  0  0  0  0  0  0  0  0  0  0  0
   -3.1447   -0.1440    0.1094 C   0  0  1  0  0  0  0  0  0  0  0  0
   -4.1693   -0.2983   -0.8305 O   0  0  0  0  0  0  0  0  0  0  0  0
   -2.1032   -1.2345   -0.0332 C   0  0  2  0  0  0  0  0  0  0  0  0
   -1.6187   -1.6660    1.1955 O   0  0  0  0  0  0  0  0  0  0  0  0
   -1.0702   -0.5596   -0.8807 C   0  0  0  0  0  0  0  0  0  0  0  0
    1.8889    0.1917   -0.4517 N   0  0  0  0  0  0  0  0  0  0  0  0
    3.8397   -1.3095   -1.6574 H   0  0  0  0  0  0  0  0  0  0  0  0
    4.5118    0.3645   -1.7870 H   0  0  0  0  0  0  0  0  0  0  0  0
    5.0793   -0.7328   -0.5055 H   0  0  0  0  0  0  0  0  0  0  0  0
    4.3111    0.3569    1.6311 H   0  0  0  0  0  0  0  0  0  0  0  0
    1.9490    1.1090    2.6323 H   0  0  0  0  0  0  0  0  0  0  0  0
   -0.6316    0.4053    1.6404 H   0  0  0  0  0  0  0  0  0  0  0  0
   -0.2665    2.0379    1.0573 H   0  0  0  0  0  0  0  0  0  0  0  0
   -2.4220    1.7940    0.8010 H   0  0  0  0  0  0  0  0  0  0  0  0
   -2.7674    1.7197   -0.9355 H   0  0  0  0  0  0  0  0  0  0  0  0
   -3.5935   -0.1323    1.1249 H   0  0  0  0  0  0  0  0  0  0  0  0
   -3.9412   -0.9503   -1.5240 H   0  0  0  0  0  0  0  0  0  0  0  0
   -2.5096   -2.1141   -0.5936 H   0  0  0  0  0  0  0  0  0  0  0  0
   -2.2247   -1.4453    1.9365 H   0  0  0  0  0  0  0  0  0  0  0  0
   -0.1106   -1.0967   -0.9239 H   0  0  0  0  0  0  0  0  0  0  0  0
   -1.4795   -0.5202   -1.9264 H   0  0  0  0  0  0  0  0  0  0  0  0
  1  2  1  0
  2  3  1  0
  3  4  2  0
  4  5  1  0
  5  6  1  0
  6  7  1  0
  7  8  1  0
  8  9  1  0
  9 10  1  0
  9 11  1  0
 11 12  1  0
 11 13  1  0
  5 14  2  0
 14  2  1  0
 13  7  1  0
  1 15  1  0
  1 16  1  0
  1 17  1  0
  3 18  1  0
  4 19  1  0
  6 20  1  0
  6 21  1  0
  8 22  1  0
  8 23  1  0
  9 24  1  1
 10 25  1  0
 11 26  1  6
 12 27  1  0
 13 28  1  0
 13 29  1  0
M  END
$$$$

     RDKit          3D

 29 30  0  0  0  0  0  0  0  0999 V2000
    4.6186   -1.1766   -0.2509 C   0  0  0  0  0  0  0  0  0  0  0  0
    3.3638   -0.4196   -0.2231 N   0  0  0  0  0  0  0  0  0  0  0  0
    2.9989    0.3781   -1.2403 C   0  0  0  0  0  0  0  0  0  0  0  0
    1.7689    0.9227   -0.8624 C   0  0  0  0  0  0  0  0  0  0  0  0
    1.4365    0.4287    0.3779 C   0  0  0  0  0  0  0  0  0  0  0  0
    0.2059    0.7710    1.1155 C   0  0  0  0  0  0  0  0  0  0  0  0
   -0.8261   -0.1520    0.7705 N   0  0  0  0  0  0  0  0  0  0  0  0
   -1.1682   -0.1749   -0.6159 C   0  0  0  0  0  0  0  0  0  0  0  0
   -2.6396   -0.5705   -0.6850 C   0  0  1  0  0  0  0  0  0  0  0  0
   -2.8743   -1.5910   -1.5748 O   0  0  0  0  0  0  0  0  0  0  0  0
   -2.9812   -0.9458    0.7506 C   0  0  2  0  0  0  0  0  0  0  0  0
   -4.3065   -0.6963    1.0442 O   0  0  0  0  0  0  0  0  0  0  0  0
   -2.0397   -0.0039    1.5109 C   0  0  0  0  0  0  0  0  0  0  0  0
    2.4504   -0.3886    0.7205 N   0  0  0  0  0  0  0  0  0  0  0  0
    4.7056   -1.6724   -1.2422 H   0  0  0  0  0  0  0  0  0  0  0  0
    4.6367   -1.9201    0.5723 H   0  0  0  0  0  0  0  0  0  0  0  0
    5.4506   -0.4437   -0.1926 H   0  0  0  0  0  0  0  0  0  0  0  0
    3.5330    0.5708   -2.1662 H   0  0  0  0  0  0  0  0  0  0  0  0
    1.2465    1.6081   -1.5081 H   0  0  0  0  0  0  0  0  0  0  0  0
    0.4309    0.6380    2.1991 H   0  0  0  0  0  0  0  0  0  0  0  0
   -0.0875    1.8330    0.9915 H   0  0  0  0  0  0  0  0  0  0  0  0
   -0.5750   -0.9741   -1.1146 H   0  0  0  0  0  0  0  0  0  0  0  0
   -1.0753    0.7986   -1.1305 H   0  0  0  0  0  0  0  0  0  0  0  0
   -3.2848    0.3135   -0.9220 H   0  0  0  0  0  0  0  0  0  0  0  0
   -3.4008   -1.2178   -2.3513 H   0  0  0  0  0  0  0  0  0  0  0  0
   -2.7019   -1.9725    0.9900 H   0  0  0  0  0  0  0  0  0  0  0  0
   -4.4258    0.2871    1.0676 H   0  0  0  0  0  0  0  0  0  0  0  0
   -2.4964    1.0035    1.4126 H   0  0  0  0  0  0  0  0  0  0  0  0
   -1.9633   -0.3015    2.5567 H   0  0  0  0  0  0  0  0  0  0  0  0
  1  2  1  0
  2  3  1  0
  3  4  2  0
  4  5  1  0
  5  6  1  0
  6  7  1  0
  7  8  1  0
  8  9  1  0
  9 10  1  0
  9 11  1  0
 11 12  1  0
 11 13  1  0
  5 14  2  0
 14  2  1  0
 13  7  1  0
  1 15  1  0
  1 16  1  0
  1 17  1  0
  3 18  1  0
  4 19  1  0
  6 20  1  0
  6 21  1  0
  8 22  1  0
  8 23  1  0
  9 24  1  6
 10 25  1  0
 11 26  1  6
 12 27  1  0
 13 28  1  0
 13 29  1  0
M  END
$$$$
