
     RDKit          3D

 28 28  0  0  0  0  0  0  0  0999 V2000
   -3.8328   -0.3469    1.4117 O   0  0  0  0  0  0  0  0  0  0  0  0
   -3.0970    0.5982    1.0774 C   0  0  0  0  0  0  0  0  0  0  0  0
   -3.3293    1.9295    1.3925 O   0  0  0  0  0  0  0  0  0  0  0  0
   -1.8360    0.3413    0.2628 C   0  0  0  0  0  0  0  0  0  0  0  0
   -1.7206   -1.1496   -0.0004 C   0  0  1  0  0  0  0  0  0  0  0  0
   -2.9282   -1.4501   -0.7070 O   0  0  0  0  0  0  0  0  0  0  0  0
   -0.5539   -1.4277   -0.9030 C   0  0  0  0  0  0  0  0  0  0  0  0
    0.7076   -1.2742   -0.3835 N   0  0  0  0  0  0  0  0  0  0  0  0
    1.3339   -0.1086   -0.0057 C   0  0  0  0  0  0  0  0  0  0  0  0
    1.5799    0.9995   -0.9756 C   0  0  0  0  0  0  0  0  0  0  0  0
    2.8845    1.2496   -0.2075 C   0  0  0  0  0  0  0  0  0  0  0  0
    2.6132    1.8331    1.0379 O   0  0  0  0  0  0  0  0  0  0  0  0
    2.9096   -0.2600   -0.0441 C   0  0  0  0  0  0  0  0  0  0  0  0
   -4.2766    2.1907    1.6354 H   0  0  0  0  0  0  0  0  0  0  0  0
   -1.9440    0.8781   -0.6970 H   0  0  0  0  0  0  0  0  0  0  0  0
   -1.0417    0.7164    0.9130 H   0  0  0  0  0  0  0  0  0  0  0  0
   -1.7436   -1.7277    0.9180 H   0  0  0  0  0  0  0  0  0  0  0  0
   -3.0957   -2.4244   -0.6770 H   0  0  0  0  0  0  0  0  0  0  0  0
   -0.6771   -2.5370   -1.1765 H   0  0  0  0  0  0  0  0  0  0  0  0
   -0.7226   -0.9505   -1.9157 H   0  0  0  0  0  0  0  0  0  0  0  0
    1.2783   -2.1539   -0.2588 H   0  0  0  0  0  0  0  0  0  0  0  0
    1.1239    0.2614    1.0045 H   0  0  0  0  0  0  0  0  0  0  0  0
    0.9503    1.9127   -0.8577 H   0  0  0  0  0  0  0  0  0  0  0  0
    1.8208    0.7398   -2.0030 H   0  0  0  0  0  0  0  0  0  0  0  0
    3.6905    1.6894   -0.7872 H   0  0  0  0  0  0  0  0  0  0  0  0
    3.3967    1.8908    1.6060 H   0  0  0  0  0  0  0  0  0  0  0  0
    3.2240   -0.7777   -0.9724 H   0  0  0  0  0  0  0  0  0  0  0  0
    3.2860   -0.6421    0.9021 H   0  0  0  0  0  0  0  0  0  0  0  0
  1  2  2  0
  2  3  1  0
  2  4  1  0
  4  5  1  0
  5  6  1  0
  5  7  1  0
  7  8  1  0
  8  9  1  0
  9 10  1  0
 10 11  1  0
 11 12  1  0
 11 13  1  0
 13  9  1  0
  3 14  1  0
  4 15  1  0
  4 16  1  0
  5 17  1  1
  6 18  1  0
  7 19  1  0
  7 20  1  0
  8 21  1  0
  9 22  1  0
 10 23  1  0
 10 24  1  0
 11 25  1  0
 12 26  1  0
 13 27  1  0
 13 28  1  0
M  END
$$$$

     RDKit          3D

 28 28  0  0  0  0  0  0  0  0999 V2000
    4.5552    1.1218    0.2626 O   0  0  0  0  0  0  0  0  0  0  0  0
    4.1602   -0.0576    0.2031 C   0  0  0  0  0  0  0  0  0  0  0  0
    4.9637   -1.0303   -0.3755 O   0  0  0  0  0  0  0  0  0  0  0  0
    2.8272   -0.4320    0.7404 C   0  0  0  0  0  0  0  0  0  0  0  0
    1.7899    0.4855    0.0753 C   0  0  1  0  0  0  0  0  0  0  0  0
    1.8208    0.3040   -1.3009 O   0  0  0  0  0  0  0  0  0  0  0  0
    0.4222    0.1106    0.5707 C   0  0  0  0  0  0  0  0  0  0  0  0
   -0.5419    0.9508   -0.1025 N   0  0  0  0  0  0  0  0  0  0  0  0
   -1.8457    0.6349    0.3772 C   0  0  0  0  0  0  0  0  0  0  0  0
   -2.3843   -0.7396    0.1615 C   0  0  0  0  0  0  0  0  0  0  0  0
   -3.6353   -0.1387   -0.4501 C   0  0  0  0  0  0  0  0  0  0  0  0
   -3.8565   -0.6995   -1.7032 O   0  0  0  0  0  0  0  0  0  0  0  0
   -2.9175    1.1795   -0.5429 C   0  0  0  0  0  0  0  0  0  0  0  0
    5.9645   -0.9814   -0.3439 H   0  0  0  0  0  0  0  0  0  0  0  0
    2.7600   -0.3514    1.8394 H   0  0  0  0  0  0  0  0  0  0  0  0
    2.5940   -1.4707    0.4250 H   0  0  0  0  0  0  0  0  0  0  0  0
    2.0178    1.5448    0.3167 H   0  0  0  0  0  0  0  0  0  0  0  0
    1.5737   -0.6410   -1.4687 H   0  0  0  0  0  0  0  0  0  0  0  0
    0.3816    0.3108    1.6696 H   0  0  0  0  0  0  0  0  0  0  0  0
    0.1659   -0.9377    0.4195 H   0  0  0  0  0  0  0  0  0  0  0  0
   -0.4287    0.8698   -1.1370 H   0  0  0  0  0  0  0  0  0  0  0  0
   -1.9432    0.9376    1.4412 H   0  0  0  0  0  0  0  0  0  0  0  0
   -1.7745   -1.3304   -0.5332 H   0  0  0  0  0  0  0  0  0  0  0  0
   -2.5744   -1.3066    1.1060 H   0  0  0  0  0  0  0  0  0  0  0  0
   -4.5255   -0.1763    0.2050 H   0  0  0  0  0  0  0  0  0  0  0  0
   -3.5933   -1.6497   -1.6686 H   0  0  0  0  0  0  0  0  0  0  0  0
   -2.5743    1.4407   -1.5754 H   0  0  0  0  0  0  0  0  0  0  0  0
   -3.4016    2.0524   -0.0859 H   0  0  0  0  0  0  0  0  0  0  0  0
  1  2  2  0
  2  3  1  0
  2  4  1  0
  4  5  1  0
  5  6  1  0
  5  7  1  0
  7  8  1  0
  8  9  1  0
  9 10  1  0
 10 11  1  0
 11 12  1  0
 11 13  1  0
 13  9  1  0
  3 14  1  0
  4 15  1  0
  4 16  1  0
  5 17  1  6
  6 18  1  0
  7 19  1  0
  7 20  1  0
  8 21  1  0
  9 22  1  0
 10 23  1  0
 10 24  1  0
 11 25  1  0
 12 26  1  0
 13 27  1  0
 13 28  1  0
M  END
$$$$

     RDKit          3D

 28 28  0  0  0  0  0  0  0  0999 V2000
    4.3487   -0.8035   -0.8470 O   0  0  0  0  0  0  0  0  0  0  0  0
    3.9583    0.2914   -0.4112 C   0  0  0  0  0  0  0  0  0  0  0  0
    4.8726    1.3444   -0.3416 O   0  0  0  0  0  0  0  0  0  0  0  0
    2.5624    0.4807    0.0312 C   0  0  0  0  0  0  0  0  0  0  0  0
    1.7934   -0.8094   -0.0858 C   0  0  1  0  0  0  0  0  0  0  0  0
    2.4593   -1.7804    0.7057 O   0  0  0  0  0  0  0  0  0  0  0  0
    0.3825   -0.6379    0.4602 C   0  0  0  0  0  0  0  0  0  0  0  0
   -0.3475    0.3085   -0.3154 N   0  0  0  0  0  0  0  0  0  0  0  0
   -1.6770    0.5487    0.2250 C   0  0  0  0  0  0  0  0  0  0  0  0
   -2.7016    0.7200   -0.8661 C   0  0  0  0  0  0  0  0  0  0  0  0
   -3.6727   -0.0616    0.0281 C   0  0  0  0  0  0  0  0  0  0  0  0
   -4.2646    0.7712    0.9705 O   0  0  0  0  0  0  0  0  0  0  0  0
   -2.4129   -0.7435    0.5860 C   0  0  0  0  0  0  0  0  0  0  0  0
    5.8088    1.1419    0.0626 H   0  0  0  0  0  0  0  0  0  0  0  0
    2.4872    0.9266    1.0193 H   0  0  0  0  0  0  0  0  0  0  0  0
    2.1126    1.2317   -0.6850 H   0  0  0  0  0  0  0  0  0  0  0  0
    1.7853   -1.1482   -1.1146 H   0  0  0  0  0  0  0  0  0  0  0  0
    2.2537   -2.6429    0.2604 H   0  0  0  0  0  0  0  0  0  0  0  0
    0.5353   -0.2629    1.5176 H   0  0  0  0  0  0  0  0  0  0  0  0
   -0.1084   -1.6423    0.5466 H   0  0  0  0  0  0  0  0  0  0  0  0
    0.1476    1.2206   -0.2881 H   0  0  0  0  0  0  0  0  0  0  0  0
   -1.7196    1.2607    1.0468 H   0  0  0  0  0  0  0  0  0  0  0  0
   -2.5068    0.1206   -1.7653 H   0  0  0  0  0  0  0  0  0  0  0  0
   -3.0327    1.7608   -1.0458 H   0  0  0  0  0  0  0  0  0  0  0  0
   -4.3512   -0.7288   -0.5079 H   0  0  0  0  0  0  0  0  0  0  0  0
   -4.0249    1.7117    0.8455 H   0  0  0  0  0  0  0  0  0  0  0  0
   -2.1801   -1.6167   -0.0254 H   0  0  0  0  0  0  0  0  0  0  0  0
   -2.5076   -0.9614    1.6494 H   0  0  0  0  0  0  0  0  0  0  0  0
  1  2  2  0
  2  3  1  0
  2  4  1  0
  4  5  1  0
  5  6  1  0
  5  7  1  0
  7  8  1  0
  8  9  1  0
  9 10  1  0
 10 11  1  0
 11 12  1  0
 11 13  1  0
 13  9  1  0
  3 14  1  0
  4 15  1  0
  4 16  1  0
  5 17  1  6
  6 18  1  0
  7 19  1  0
  7 20  1  0
  8 21  1  0
  9 22  1  0
 10 23  1  0
 10 24  1  0
 11 25  1  0
 12 26  1  0
 13 27  1  0
 13 28  1  0
M  END
$$$$

     RDKit          3D

 28 28  0  0  0  0  0  0  0  0999 V2000
    2.9052    1.5057    1.7894 O   0  0  0  0  0  0  0  0  0  0  0  0
    3.2457    0.6523    0.9257 C   0  0  0  0  0  0  0  0  0  0  0  0
    4.5371    0.7322    0.3737 O   0  0  0  0  0  0  0  0  0  0  0  0
    2.3128   -0.4213    0.4897 C   0  0  0  0  0  0  0  0  0  0  0  0
    1.3917    0.1465   -0.5828 C   0  0  1  0  0  0  0  0  0  0  0  0
    2.1999    0.5761   -1.6624 O   0  0  0  0  0  0  0  0  0  0  0  0
    0.4689   -0.8993   -1.1306 C   0  0  0  0  0  0  0  0  0  0  0  0
   -0.4387   -1.4847   -0.2589 N   0  0  0  0  0  0  0  0  0  0  0  0
   -1.5361   -0.8974    0.2949 C   0  0  0  0  0  0  0  0  0  0  0  0
   -2.6906   -0.4292   -0.5767 C   0  0  0  0  0  0  0  0  0  0  0  0
   -3.1178    0.3033    0.7189 C   0  0  0  0  0  0  0  0  0  0  0  0
   -3.7995    1.4727    0.5098 O   0  0  0  0  0  0  0  0  0  0  0  0
   -1.5775    0.4855    0.8567 C   0  0  0  0  0  0  0  0  0  0  0  0
    5.1733    1.4056    0.7839 H   0  0  0  0  0  0  0  0  0  0  0  0
    2.8609   -1.3168    0.1360 H   0  0  0  0  0  0  0  0  0  0  0  0
    1.7401   -0.7282    1.3879 H   0  0  0  0  0  0  0  0  0  0  0  0
    0.8778    0.9871   -0.1111 H   0  0  0  0  0  0  0  0  0  0  0  0
    1.9804    1.5253   -1.8375 H   0  0  0  0  0  0  0  0  0  0  0  0
    1.1619   -1.7254   -1.4993 H   0  0  0  0  0  0  0  0  0  0  0  0
   -0.0088   -0.5637   -2.0989 H   0  0  0  0  0  0  0  0  0  0  0  0
   -0.4491   -2.5138   -0.1949 H   0  0  0  0  0  0  0  0  0  0  0  0
   -2.0013   -1.5855    1.0766 H   0  0  0  0  0  0  0  0  0  0  0  0
   -3.4081   -1.1945   -0.8607 H   0  0  0  0  0  0  0  0  0  0  0  0
   -2.4081    0.3365   -1.3113 H   0  0  0  0  0  0  0  0  0  0  0  0
   -3.4467   -0.3462    1.5253 H   0  0  0  0  0  0  0  0  0  0  0  0
   -3.3304    2.0173   -0.1716 H   0  0  0  0  0  0  0  0  0  0  0  0
   -1.3821    1.3333    0.1433 H   0  0  0  0  0  0  0  0  0  0  0  0
   -1.2612    0.6267    1.8912 H   0  0  0  0  0  0  0  0  0  0  0  0
  1  2  2  0
  2  3  1  0
  2  4  1  0
  4  5  1  0
  5  6  1  0
  5  7  1  0
  7  8  1  0
  8  9  1  0
  9 10  1  0
 10 11  1  0
 11 12  1  0
 11 13  1  0
 13  9  1  0
  3 14  1  0
  4 15  1  0
  4 16  1  0
  5 17  1  1
  6 18  1  0
  7 19  1  0
  7 20  1  0
  8 21  1  0
  9 22  1  0
 10 23  1  0
 10 24  1  0
 11 25  1  0
 12 26  1  0
 13 27  1  0
 13 28  1  0
M  END
$$$$

     RDKit          3D

 28 28  0  0  0  0  0  0  0  0999 V2000
   -3.4764   -1.1336    1.5405 O   0  0  0  0  0  0  0  0  0  0  0  0
   -3.6959   -0.7230    0.3619 C   0  0  0  0  0  0  0  0  0  0  0  0
   -4.9239   -1.0435   -0.1786 O   0  0  0  0  0  0  0  0  0  0  0  0
   -2.6924    0.0534   -0.3913 C   0  0  0  0  0  0  0  0  0  0  0  0
   -1.4286    0.2238    0.4800 C   0  0  1  0  0  0  0  0  0  0  0  0
   -0.9883   -1.0426    0.7262 O   0  0  0  0  0  0  0  0  0  0  0  0
   -0.5216    1.1636   -0.2520 C   0  0  0  0  0  0  0  0  0  0  0  0
    0.6881    1.3723    0.3644 N   0  0  0  0  0  0  0  0  0  0  0  0
    1.7933    0.5830    0.4023 C   0  0  0  0  0  0  0  0  0  0  0  0
    2.5931    0.3597   -0.8892 C   0  0  0  0  0  0  0  0  0  0  0  0
    3.2077   -0.8028   -0.0690 C   0  0  0  0  0  0  0  0  0  0  0  0
    3.6282   -1.8657   -0.8177 O   0  0  0  0  0  0  0  0  0  0  0  0
    1.7312   -0.9357    0.4190 C   0  0  0  0  0  0  0  0  0  0  0  0
   -5.7978   -0.9670    0.3541 H   0  0  0  0  0  0  0  0  0  0  0  0
   -2.3527   -0.5570   -1.2548 H   0  0  0  0  0  0  0  0  0  0  0  0
   -3.0806    1.0273   -0.6866 H   0  0  0  0  0  0  0  0  0  0  0  0
   -1.7459    0.6522    1.4745 H   0  0  0  0  0  0  0  0  0  0  0  0
   -1.2734   -1.6653    0.0198 H   0  0  0  0  0  0  0  0  0  0  0  0
   -1.0898    2.1602   -0.2528 H   0  0  0  0  0  0  0  0  0  0  0  0
   -0.4787    0.7960   -1.3123 H   0  0  0  0  0  0  0  0  0  0  0  0
    0.7688    2.2028    0.9989 H   0  0  0  0  0  0  0  0  0  0  0  0
    2.5307    0.8901    1.1806 H   0  0  0  0  0  0  0  0  0  0  0  0
    3.2853    1.1483   -1.1662 H   0  0  0  0  0  0  0  0  0  0  0  0
    2.0327   -0.0690   -1.7180 H   0  0  0  0  0  0  0  0  0  0  0  0
    3.8278   -0.4293    0.7518 H   0  0  0  0  0  0  0  0  0  0  0  0
    4.6030   -1.7760   -0.9595 H   0  0  0  0  0  0  0  0  0  0  0  0
    1.6338   -1.4373    1.3620 H   0  0  0  0  0  0  0  0  0  0  0  0
    1.2223   -1.3780   -0.4877 H   0  0  0  0  0  0  0  0  0  0  0  0
  1  2  2  0
  2  3  1  0
  2  4  1  0
  4  5  1  0
  5  6  1  0
  5  7  1  0
  7  8  1  0
  8  9  1  0
  9 10  1  0
 10 11  1  0
 11 12  1  0
 11 13  1  0
 13  9  1  0
  3 14  1  0
  4 15  1  0
  4 16  1  0
  5 17  1  1
  6 18  1  0
  7 19  1  0
  7 20  1  0
  8 21  1  0
  9 22  1  0
 10 23  1  0
 10 24  1  0
 11 25  1  0
 12 26  1  0
 13 27  1  0
 13 28  1  0
M  END
$$$$

     RDKit          3D

 28 28  0  0  0  0  0  0  0  0999 V2000
    2.8392    0.5750    1.5224 O   0  0  0  0  0  0  0  0  0  0  0  0
    2.9641    0.8207    0.2806 C   0  0  0  0  0  0  0  0  0  0  0  0
    3.4530    2.0556   -0.0814 O   0  0  0  0  0  0  0  0  0  0  0  0
    2.6095   -0.1510   -0.7672 C   0  0  0  0  0  0  0  0  0  0  0  0
    1.8534   -1.3491   -0.2363 C   0  0  1  0  0  0  0  0  0  0  0  0
    2.5597   -2.0386    0.7093 O   0  0  0  0  0  0  0  0  0  0  0  0
    0.5261   -0.8859    0.3576 C   0  0  0  0  0  0  0  0  0  0  0  0
   -0.2234   -0.1354   -0.6017 N   0  0  0  0  0  0  0  0  0  0  0  0
   -1.3762    0.4428   -0.0981 C   0  0  0  0  0  0  0  0  0  0  0  0
   -2.5866    0.5387   -1.0042 C   0  0  0  0  0  0  0  0  0  0  0  0
   -3.4152    0.3070    0.2734 C   0  0  0  0  0  0  0  0  0  0  0  0
   -3.6696    1.4551    0.9806 O   0  0  0  0  0  0  0  0  0  0  0  0
   -2.1720   -0.3977    0.8630 C   0  0  0  0  0  0  0  0  0  0  0  0
    3.9431    2.6403    0.5839 H   0  0  0  0  0  0  0  0  0  0  0  0
    3.5327   -0.4522   -1.2787 H   0  0  0  0  0  0  0  0  0  0  0  0
    1.9474    0.3759   -1.5142 H   0  0  0  0  0  0  0  0  0  0  0  0
    1.6034   -2.0093   -1.0983 H   0  0  0  0  0  0  0  0  0  0  0  0
    3.4947   -2.2133    0.5013 H   0  0  0  0  0  0  0  0  0  0  0  0
   -0.0097   -1.8509    0.5910 H   0  0  0  0  0  0  0  0  0  0  0  0
    0.7569   -0.3439    1.2840 H   0  0  0  0  0  0  0  0  0  0  0  0
   -0.1862   -0.4869   -1.5631 H   0  0  0  0  0  0  0  0  0  0  0  0
   -1.1651    1.4757    0.3149 H   0  0  0  0  0  0  0  0  0  0  0  0
   -2.7257   -0.2117   -1.7677 H   0  0  0  0  0  0  0  0  0  0  0  0
   -2.7634    1.5482   -1.3895 H   0  0  0  0  0  0  0  0  0  0  0  0
   -4.2410   -0.3804    0.1278 H   0  0  0  0  0  0  0  0  0  0  0  0
   -3.3606    2.2639    0.4686 H   0  0  0  0  0  0  0  0  0  0  0  0
   -2.0141   -0.1023    1.9425 H   0  0  0  0  0  0  0  0  0  0  0  0
   -2.1744   -1.4903    0.6898 H   0  0  0  0  0  0  0  0  0  0  0  0
  1  2  2  0
  2  3  1  0
  2  4  1  0
  4  5  1  0
  5  6  1  0
  5  7  1  0
  7  8  1  0
  8  9  1  0
  9 10  1  0
 10 11  1  0
 11 12  1  0
 11 13  1  0
 13  9  1  0
  3 14  1  0
  4 15  1  0
  4 16  1  0
  5 17  1  6
  6 18  1  0
  7 19  1  0
  7 20  1  0
  8 21  1  0
  9 22  1  0
 10 23  1  0
 10 24  1  0
 11 25  1  0
 12 26  1  0
 13 27  1  0
 13 28  1  0
M  END
$$$$

     RDKit          3D

 28 28  0  0  0  0  0  0  0  0999 V2000
   -4.6273    0.4746   -0.9903 O   0  0  0  0  0  0  0  0  0  0  0  0
   -3.4441    0.4579   -0.4954 C   0  0  0  0  0  0  0  0  0  0  0  0
   -2.9258    1.6505   -0.0865 O   0  0  0  0  0  0  0  0  0  0  0  0
   -2.7537   -0.8202   -0.4108 C   0  0  0  0  0  0  0  0  0  0  0  0
   -1.9173   -0.9895    0.8131 C   0  0  1  0  0  0  0  0  0  0  0  0
   -1.3092   -2.2883    0.7838 O   0  0  0  0  0  0  0  0  0  0  0  0
   -0.7409   -0.0423    0.8419 C   0  0  0  0  0  0  0  0  0  0  0  0
    0.0914   -0.1610   -0.3134 N   0  0  0  0  0  0  0  0  0  0  0  0
    1.2093    0.7208   -0.3562 C   0  0  0  0  0  0  0  0  0  0  0  0
    2.2481    0.5790    0.7263 C   0  0  0  0  0  0  0  0  0  0  0  0
    3.2978    0.5485   -0.3589 C   0  0  0  0  0  0  0  0  0  0  0  0
    4.1984   -0.5024   -0.2768 O   0  0  0  0  0  0  0  0  0  0  0  0
    2.2327    0.2763   -1.3793 C   0  0  0  0  0  0  0  0  0  0  0  0
   -3.4543    2.4136    0.2640 H   0  0  0  0  0  0  0  0  0  0  0  0
   -2.0764   -0.8778   -1.3191 H   0  0  0  0  0  0  0  0  0  0  0  0
   -3.4531   -1.6777   -0.5640 H   0  0  0  0  0  0  0  0  0  0  0  0
   -2.4831   -0.8498    1.7501 H   0  0  0  0  0  0  0  0  0  0  0  0
   -1.7470   -2.8015    0.0752 H   0  0  0  0  0  0  0  0  0  0  0  0
   -0.1325   -0.3217    1.7505 H   0  0  0  0  0  0  0  0  0  0  0  0
   -1.0922    0.9768    0.9786 H   0  0  0  0  0  0  0  0  0  0  0  0
    0.2107   -1.0989   -0.7013 H   0  0  0  0  0  0  0  0  0  0  0  0
    0.9007    1.7687   -0.5082 H   0  0  0  0  0  0  0  0  0  0  0  0
    2.2036   -0.3165    1.3466 H   0  0  0  0  0  0  0  0  0  0  0  0
    2.3574    1.4965    1.3490 H   0  0  0  0  0  0  0  0  0  0  0  0
    3.8356    1.5051   -0.5287 H   0  0  0  0  0  0  0  0  0  0  0  0
    4.9492   -0.2429    0.3239 H   0  0  0  0  0  0  0  0  0  0  0  0
    2.1581   -0.8020   -1.6525 H   0  0  0  0  0  0  0  0  0  0  0  0
    2.2640    0.9241   -2.2625 H   0  0  0  0  0  0  0  0  0  0  0  0
  1  2  2  0
  2  3  1  0
  2  4  1  0
  4  5  1  0
  5  6  1  0
  5  7  1  0
  7  8  1  0
  8  9  1  0
  9 10  1  0
 10 11  1  0
 11 12  1  0
 11 13  1  0
 13  9  1  0
  3 14  1  0
  4 15  1  0
  4 16  1  0
  5 17  1  1
  6 18  1  0
  7 19  1  0
  7 20  1  0
  8 21  1  0
  9 22  1  0
 10 23  1  0
 10 24  1  0
 11 25  1  0
 12 26  1  0
 13 27  1  0
 13 28  1  0
M  END
$$$$

     RDKit          3D

 28 28  0  0  0  0  0  0  0  0999 V2000
    4.7569    0.5859    1.3235 O   0  0  0  0  0  0  0  0  0  0  0  0
    4.2515    0.1074    0.2919 C   0  0  0  0  0  0  0  0  0  0  0  0
    4.8038   -1.0195   -0.2710 O   0  0  0  0  0  0  0  0  0  0  0  0
    3.0550    0.7553   -0.3180 C   0  0  0  0  0  0  0  0  0  0  0  0
    1.8734   -0.0355    0.1611 C   0  0  1  0  0  0  0  0  0  0  0  0
    1.7673   -0.0345    1.5525 O   0  0  0  0  0  0  0  0  0  0  0  0
    0.5480    0.4040   -0.4337 C   0  0  0  0  0  0  0  0  0  0  0  0
   -0.4594   -0.6001   -0.0954 N   0  0  0  0  0  0  0  0  0  0  0  0
   -1.7503   -0.0744   -0.3129 C   0  0  0  0  0  0  0  0  0  0  0  0
   -2.6346   -0.1392    0.9694 C   0  0  0  0  0  0  0  0  0  0  0  0
   -3.7905   -0.1713   -0.0035 C   0  0  0  0  0  0  0  0  0  0  0  0
   -4.0441    1.1267   -0.4315 O   0  0  0  0  0  0  0  0  0  0  0  0
   -2.8250   -0.8638   -0.9803 C   0  0  0  0  0  0  0  0  0  0  0  0
    5.0088   -1.8587    0.3116 H   0  0  0  0  0  0  0  0  0  0  0  0
    3.1373    0.6895   -1.4419 H   0  0  0  0  0  0  0  0  0  0  0  0
    3.0143    1.8352   -0.0654 H   0  0  0  0  0  0  0  0  0  0  0  0
    2.0241   -1.1039   -0.2075 H   0  0  0  0  0  0  0  0  0  0  0  0
    1.7339    0.9403    1.8297 H   0  0  0  0  0  0  0  0  0  0  0  0
    0.6438    0.5379   -1.5437 H   0  0  0  0  0  0  0  0  0  0  0  0
    0.2877    1.3853   -0.0009 H   0  0  0  0  0  0  0  0  0  0  0  0
   -0.2533   -1.5037   -0.5320 H   0  0  0  0  0  0  0  0  0  0  0  0
   -1.8114    0.9843   -0.6574 H   0  0  0  0  0  0  0  0  0  0  0  0
   -2.5377    0.7199    1.6135 H   0  0  0  0  0  0  0  0  0  0  0  0
   -2.5029   -1.1479    1.4264 H   0  0  0  0  0  0  0  0  0  0  0  0
   -4.6595   -0.7819    0.3005 H   0  0  0  0  0  0  0  0  0  0  0  0
   -3.7225    1.7917    0.2562 H   0  0  0  0  0  0  0  0  0  0  0  0
   -2.8679   -1.9526   -0.8011 H   0  0  0  0  0  0  0  0  0  0  0  0
   -3.0469   -0.5762   -2.0356 H   0  0  0  0  0  0  0  0  0  0  0  0
  1  2  2  0
  2  3  1  0
  2  4  1  0
  4  5  1  0
  5  6  1  0
  5  7  1  0
  7  8  1  0
  8  9  1  0
  9 10  1  0
 10 11  1  0
 11 12  1  0
 11 13  1  0
 13  9  1  0
  3 14  1  0
  4 15  1  0
  4 16  1  0
  5 17  1  6
  6 18  1  0
  7 19  1  0
  7 20  1  0
  8 21  1  0
  9 22  1  0
 10 23  1  0
 10 24  1  0
 11 25  1  0
 12 26  1  0
 13 27  1  0
 13 28  1  0
M  END
$$$$
