
     RDKit          3D

 28 28  0  0  0  0  0  0  0  0999 V2000
   -3.5397   -0.0193    0.6613 O   0  0  0  0  0  0  0  0  0  0  0  0
   -2.2935   -0.2914    1.2132 C   0  0  0  0  0  0  0  0  0  0  0  0
   -1.1635    0.0123    0.2545 C   0  0  0  0  0  0  0  0  0  0  0  0
   -1.1847    1.4725   -0.1009 C   0  0  0  0  0  0  0  0  0  0  0  0
   -2.3553    1.8596   -0.7356 O   0  0  0  0  0  0  0  0  0  0  0  0
   -1.4004   -0.8248   -0.9850 C   0  0  0  0  0  0  0  0  0  0  0  0
   -1.4372   -2.1752   -0.7141 O   0  0  0  0  0  0  0  0  0  0  0  0
    0.0737   -0.2950    0.9012 N   0  0  0  0  0  0  0  0  0  0  0  0
    1.3454   -0.1162    0.2502 C   0  0  0  0  0  0  0  0  0  0  0  0
    1.4543    0.1188   -1.0091 N   0  0  0  0  0  0  0  0  0  0  0  0
    2.8562    0.2469   -1.3493 C   0  0  0  0  0  0  0  0  0  0  0  0
    3.6036   -0.2765   -0.1249 C   0  0  0  0  0  0  0  0  0  0  0  0
    2.6011   -0.1753    0.9046 N   0  0  0  0  0  0  0  0  0  0  0  0
   -3.8529   -0.7344    0.0652 H   0  0  0  0  0  0  0  0  0  0  0  0
   -2.2103   -1.3407    1.5868 H   0  0  0  0  0  0  0  0  0  0  0  0
   -2.1467    0.3839    2.0999 H   0  0  0  0  0  0  0  0  0  0  0  0
   -0.9700    2.0874    0.7927 H   0  0  0  0  0  0  0  0  0  0  0  0
   -0.3567    1.6500   -0.8181 H   0  0  0  0  0  0  0  0  0  0  0  0
   -2.5830    2.8016   -0.4870 H   0  0  0  0  0  0  0  0  0  0  0  0
   -2.4141   -0.5411   -1.3687 H   0  0  0  0  0  0  0  0  0  0  0  0
   -0.6939   -0.5845   -1.7928 H   0  0  0  0  0  0  0  0  0  0  0  0
   -0.8481   -2.4454    0.0406 H   0  0  0  0  0  0  0  0  0  0  0  0
    0.0847   -0.6625    1.8774 H   0  0  0  0  0  0  0  0  0  0  0  0
    3.1372    1.3092   -1.4750 H   0  0  0  0  0  0  0  0  0  0  0  0
    3.1564   -0.3787   -2.2058 H   0  0  0  0  0  0  0  0  0  0  0  0
    3.9637   -1.3089   -0.2835 H   0  0  0  0  0  0  0  0  0  0  0  0
    4.4467    0.3748    0.1561 H   0  0  0  0  0  0  0  0  0  0  0  0
    2.7271   -0.1472    1.9477 H   0  0  0  0  0  0  0  0  0  0  0  0
  1  2  1  0
  2  3  1  0
  3  4  1  0
  4  5  1  0
  3  6  1  0
  6  7  1  0
  3  8  1  0
  8  9  1  0
  9 10  2  0
 10 11  1  0
 11 12  1  0
 12 13  1  0
 13  9  1  0
  1 14  1  0
  2 15  1  0
  2 16  1  0
  4 17  1  0
  4 18  1  0
  5 19  1  0
  6 20  1  0
  6 21  1  0
  7 22  1  0
  8 23  1  0
 11 24  1  0
 11 25  1  0
 12 26  1  0
 12 27  1  0
 13 28  1  0
M  END
$$$$

     RDKit          3D

 28 28  0  0  0  0  0  0  0  0999 V2000
   -2.1128   -1.3222   -1.8085 O   0  0  0  0  0  0  0  0  0  0  0  0
   -1.0325   -1.2274   -0.9310 C   0  0  0  0  0  0  0  0  0  0  0  0
   -1.1985   -0.0748    0.0424 C   0  0  0  0  0  0  0  0  0  0  0  0
   -1.3628    1.1747   -0.7638 C   0  0  0  0  0  0  0  0  0  0  0  0
   -1.4875    2.3171    0.0302 O   0  0  0  0  0  0  0  0  0  0  0  0
   -2.4636   -0.3502    0.8287 C   0  0  0  0  0  0  0  0  0  0  0  0
   -2.6569    0.6253    1.8115 O   0  0  0  0  0  0  0  0  0  0  0  0
   -0.0394   -0.0718    0.8900 N   0  0  0  0  0  0  0  0  0  0  0  0
    1.2827    0.0833    0.3962 C   0  0  0  0  0  0  0  0  0  0  0  0
    1.5299    0.5966   -0.7566 N   0  0  0  0  0  0  0  0  0  0  0  0
    2.9580    0.6379   -1.0133 C   0  0  0  0  0  0  0  0  0  0  0  0
    3.4947   -0.3662   -0.0248 C   0  0  0  0  0  0  0  0  0  0  0  0
    2.5142   -0.2772    1.0421 N   0  0  0  0  0  0  0  0  0  0  0  0
   -2.1779   -2.2651   -2.1102 H   0  0  0  0  0  0  0  0  0  0  0  0
   -0.1079   -1.0128   -1.5183 H   0  0  0  0  0  0  0  0  0  0  0  0
   -0.8541   -2.1782   -0.4107 H   0  0  0  0  0  0  0  0  0  0  0  0
   -0.6027    1.2914   -1.5508 H   0  0  0  0  0  0  0  0  0  0  0  0
   -2.3439    1.0809   -1.3039 H   0  0  0  0  0  0  0  0  0  0  0  0
   -2.4436    2.5479    0.1921 H   0  0  0  0  0  0  0  0  0  0  0  0
   -2.4194   -1.3326    1.3419 H   0  0  0  0  0  0  0  0  0  0  0  0
   -3.3595   -0.3535    0.2017 H   0  0  0  0  0  0  0  0  0  0  0  0
   -1.9806    0.5738    2.5311 H   0  0  0  0  0  0  0  0  0  0  0  0
   -0.1833   -0.1899    1.9172 H   0  0  0  0  0  0  0  0  0  0  0  0
    3.2114    0.4269   -2.0519 H   0  0  0  0  0  0  0  0  0  0  0  0
    3.3202    1.6525   -0.6859 H   0  0  0  0  0  0  0  0  0  0  0  0
    3.3855   -1.4049   -0.4470 H   0  0  0  0  0  0  0  0  0  0  0  0
    4.4984   -0.1501    0.3366 H   0  0  0  0  0  0  0  0  0  0  0  0
    2.6322   -0.4318    2.0623 H   0  0  0  0  0  0  0  0  0  0  0  0
  1  2  1  0
  2  3  1  0
  3  4  1  0
  4  5  1  0
  3  6  1  0
  6  7  1  0
  3  8  1  0
  8  9  1  0
  9 10  2  0
 10 11  1  0
 11 12  1  0
 12 13  1  0
 13  9  1  0
  1 14  1  0
  2 15  1  0
  2 16  1  0
  4 17  1  0
  4 18  1  0
  5 19  1  0
  6 20  1  0
  6 21  1  0
  7 22  1  0
  8 23  1  0
 11 24  1  0
 11 25  1  0
 12 26  1  0
 12 27  1  0
 13 28  1  0
M  END
$$$$

     RDKit          3D

 28 28  0  0  0  0  0  0  0  0999 V2000
   -0.3158   -1.5201   -1.2833 O   0  0  0  0  0  0  0  0  0  0  0  0
   -1.3553   -0.6349   -1.1601 C   0  0  0  0  0  0  0  0  0  0  0  0
   -1.2313    0.2863    0.0498 C   0  0  0  0  0  0  0  0  0  0  0  0
   -1.4940   -0.3955    1.3437 C   0  0  0  0  0  0  0  0  0  0  0  0
   -0.5633   -1.2978    1.7741 O   0  0  0  0  0  0  0  0  0  0  0  0
   -2.4072    1.2722   -0.1304 C   0  0  0  0  0  0  0  0  0  0  0  0
   -3.6216    0.5905   -0.0678 O   0  0  0  0  0  0  0  0  0  0  0  0
   -0.0366    1.0662   -0.0277 N   0  0  0  0  0  0  0  0  0  0  0  0
    1.2608    0.4938   -0.1189 C   0  0  0  0  0  0  0  0  0  0  0  0
    1.5785   -0.6370    0.3732 N   0  0  0  0  0  0  0  0  0  0  0  0
    2.9670   -0.9675    0.1291 C   0  0  0  0  0  0  0  0  0  0  0  0
    3.5676    0.3062   -0.4095 C   0  0  0  0  0  0  0  0  0  0  0  0
    2.4128    1.0783   -0.7668 N   0  0  0  0  0  0  0  0  0  0  0  0
   -0.4044   -2.3544   -0.7852 H   0  0  0  0  0  0  0  0  0  0  0  0
   -1.3548    0.0334   -2.0597 H   0  0  0  0  0  0  0  0  0  0  0  0
   -2.3473   -1.1258   -1.1244 H   0  0  0  0  0  0  0  0  0  0  0  0
   -2.4593   -0.9680    1.2100 H   0  0  0  0  0  0  0  0  0  0  0  0
   -1.7266    0.3950    2.0976 H   0  0  0  0  0  0  0  0  0  0  0  0
   -1.0240   -1.9120    2.4259 H   0  0  0  0  0  0  0  0  0  0  0  0
   -2.4132    2.0197    0.6804 H   0  0  0  0  0  0  0  0  0  0  0  0
   -2.3457    1.7886   -1.0907 H   0  0  0  0  0  0  0  0  0  0  0  0
   -3.9224    0.5552    0.8791 H   0  0  0  0  0  0  0  0  0  0  0  0
   -0.0718    2.1326   -0.0201 H   0  0  0  0  0  0  0  0  0  0  0  0
    3.0608   -1.7399   -0.6700 H   0  0  0  0  0  0  0  0  0  0  0  0
    3.4980   -1.2900    1.0474 H   0  0  0  0  0  0  0  0  0  0  0  0
    4.1540    0.7745    0.4103 H   0  0  0  0  0  0  0  0  0  0  0  0
    4.1961    0.1283   -1.3161 H   0  0  0  0  0  0  0  0  0  0  0  0
    2.3990    1.9223   -1.3900 H   0  0  0  0  0  0  0  0  0  0  0  0
  1  2  1  0
  2  3  1  0
  3  4  1  0
  4  5  1  0
  3  6  1  0
  6  7  1  0
  3  8  1  0
  8  9  1  0
  9 10  2  0
 10 11  1  0
 11 12  1  0
 12 13  1  0
 13  9  1  0
  1 14  1  0
  2 15  1  0
  2 16  1  0
  4 17  1  0
  4 18  1  0
  5 19  1  0
  6 20  1  0
  6 21  1  0
  7 22  1  0
  8 23  1  0
 11 24  1  0
 11 25  1  0
 12 26  1  0
 12 27  1  0
 13 28  1  0
M  END
$$$$

     RDKit          3D

 28 28  0  0  0  0  0  0  0  0999 V2000
   -2.1228   -1.8793    1.3299 O   0  0  0  0  0  0  0  0  0  0  0  0
   -1.1081   -1.5838    0.3890 C   0  0  0  0  0  0  0  0  0  0  0  0
   -1.2602   -0.1274   -0.0540 C   0  0  0  0  0  0  0  0  0  0  0  0
   -1.0745    0.7440    1.1541 C   0  0  0  0  0  0  0  0  0  0  0  0
   -1.1339    2.0978    0.7685 O   0  0  0  0  0  0  0  0  0  0  0  0
   -2.6365    0.0813   -0.6680 C   0  0  0  0  0  0  0  0  0  0  0  0
   -2.7306    1.3942   -1.0809 O   0  0  0  0  0  0  0  0  0  0  0  0
   -0.2223    0.1470   -1.0128 N   0  0  0  0  0  0  0  0  0  0  0  0
    1.1462    0.0231   -0.6490 C   0  0  0  0  0  0  0  0  0  0  0  0
    1.6681   -0.3641    0.4520 N   0  0  0  0  0  0  0  0  0  0  0  0
    3.1095   -0.3307    0.3729 C   0  0  0  0  0  0  0  0  0  0  0  0
    3.4166    0.5236   -0.8454 C   0  0  0  0  0  0  0  0  0  0  0  0
    2.1867    0.3544   -1.5896 N   0  0  0  0  0  0  0  0  0  0  0  0
   -2.2917   -2.8431    1.2967 H   0  0  0  0  0  0  0  0  0  0  0  0
   -1.2880   -2.2697   -0.4654 H   0  0  0  0  0  0  0  0  0  0  0  0
   -0.1462   -1.7807    0.8852 H   0  0  0  0  0  0  0  0  0  0  0  0
   -1.8731    0.5731    1.9197 H   0  0  0  0  0  0  0  0  0  0  0  0
   -0.1269    0.5581    1.6452 H   0  0  0  0  0  0  0  0  0  0  0  0
   -0.5245    2.2758    0.0327 H   0  0  0  0  0  0  0  0  0  0  0  0
   -2.7079   -0.6073   -1.5496 H   0  0  0  0  0  0  0  0  0  0  0  0
   -3.3746   -0.1798    0.1203 H   0  0  0  0  0  0  0  0  0  0  0  0
   -3.2800    1.9229   -0.4401 H   0  0  0  0  0  0  0  0  0  0  0  0
   -0.5058    0.4390   -1.9808 H   0  0  0  0  0  0  0  0  0  0  0  0
    3.4710    0.1768    1.3130 H   0  0  0  0  0  0  0  0  0  0  0  0
    3.4716   -1.3584    0.2817 H   0  0  0  0  0  0  0  0  0  0  0  0
    4.2152   -0.0052   -1.4047 H   0  0  0  0  0  0  0  0  0  0  0  0
    3.6438    1.5609   -0.6038 H   0  0  0  0  0  0  0  0  0  0  0  0
    2.0788    0.4577   -2.6416 H   0  0  0  0  0  0  0  0  0  0  0  0
  1  2  1  0
  2  3  1  0
  3  4  1  0
  4  5  1  0
  3  6  1  0
  6  7  1  0
  3  8  1  0
  8  9  1  0
  9 10  2  0
 10 11  1  0
 11 12  1  0
 12 13  1  0
 13  9  1  0
  1 14  1  0
  2 15  1  0
  2 16  1  0
  4 17  1  0
  4 18  1  0
  5 19  1  0
  6 20  1  0
  6 21  1  0
  7 22  1  0
  8 23  1  0
 11 24  1  0
 11 25  1  0
 12 26  1  0
 12 27  1  0
 13 28  1  0
M  END
$$$$

     RDKit          3D

 28 28  0  0  0  0  0  0  0  0999 V2000
   -1.5016    1.8519   -1.3042 O   0  0  0  0  0  0  0  0  0  0  0  0
   -1.3691    1.3452   -0.0132 C   0  0  0  0  0  0  0  0  0  0  0  0
   -1.1889   -0.1334   -0.0082 C   0  0  0  0  0  0  0  0  0  0  0  0
   -1.1473   -0.6430    1.4401 C   0  0  0  0  0  0  0  0  0  0  0  0
   -2.2634   -0.1385    2.1292 O   0  0  0  0  0  0  0  0  0  0  0  0
   -2.4510   -0.7265   -0.6074 C   0  0  0  0  0  0  0  0  0  0  0  0
   -2.4995   -0.3698   -1.9348 O   0  0  0  0  0  0  0  0  0  0  0  0
   -0.0649   -0.6444   -0.6933 N   0  0  0  0  0  0  0  0  0  0  0  0
    1.2841   -0.2858   -0.3460 C   0  0  0  0  0  0  0  0  0  0  0  0
    1.5606    0.5439    0.5648 N   0  0  0  0  0  0  0  0  0  0  0  0
    2.9826    0.7580    0.7489 C   0  0  0  0  0  0  0  0  0  0  0  0
    3.6020   -0.3866   -0.0161 C   0  0  0  0  0  0  0  0  0  0  0  0
    2.4912   -0.7462   -0.9023 N   0  0  0  0  0  0  0  0  0  0  0  0
   -1.9129    2.7439   -1.3251 H   0  0  0  0  0  0  0  0  0  0  0  0
   -2.3205    1.5730    0.5114 H   0  0  0  0  0  0  0  0  0  0  0  0
   -0.5744    1.9158    0.4845 H   0  0  0  0  0  0  0  0  0  0  0  0
   -1.2467   -1.7538    1.4602 H   0  0  0  0  0  0  0  0  0  0  0  0
   -0.2231   -0.3110    1.9215 H   0  0  0  0  0  0  0  0  0  0  0  0
   -2.9944   -0.8242    2.1542 H   0  0  0  0  0  0  0  0  0  0  0  0
   -2.4285   -1.8410   -0.5485 H   0  0  0  0  0  0  0  0  0  0  0  0
   -3.3549   -0.3161   -0.0887 H   0  0  0  0  0  0  0  0  0  0  0  0
   -1.6379   -0.2192   -2.3738 H   0  0  0  0  0  0  0  0  0  0  0  0
   -0.1678   -1.3111   -1.4880 H   0  0  0  0  0  0  0  0  0  0  0  0
    3.3010    1.6987    0.2124 H   0  0  0  0  0  0  0  0  0  0  0  0
    3.2700    0.7824    1.8119 H   0  0  0  0  0  0  0  0  0  0  0  0
    3.8557   -1.2038    0.6715 H   0  0  0  0  0  0  0  0  0  0  0  0
    4.4361   -0.0971   -0.6553 H   0  0  0  0  0  0  0  0  0  0  0  0
    2.5637   -1.2613   -1.8059 H   0  0  0  0  0  0  0  0  0  0  0  0
  1  2  1  0
  2  3  1  0
  3  4  1  0
  4  5  1  0
  3  6  1  0
  6  7  1  0
  3  8  1  0
  8  9  1  0
  9 10  2  0
 10 11  1  0
 11 12  1  0
 12 13  1  0
 13  9  1  0
  1 14  1  0
  2 15  1  0
  2 16  1  0
  4 17  1  0
  4 18  1  0
  5 19  1  0
  6 20  1  0
  6 21  1  0
  7 22  1  0
  8 23  1  0
 11 24  1  0
 11 25  1  0
 12 26  1  0
 12 27  1  0
 13 28  1  0
M  END
$$$$

     RDKit          3D

 28 28  0  0  0  0  0  0  0  0999 V2000
   -3.6572    0.2593    0.1861 O   0  0  0  0  0  0  0  0  0  0  0  0
   -2.5629    0.0029    0.9786 C   0  0  0  0  0  0  0  0  0  0  0  0
   -1.2595    0.1364    0.2200 C   0  0  0  0  0  0  0  0  0  0  0  0
   -1.2980   -0.9507   -0.8640 C   0  0  0  0  0  0  0  0  0  0  0  0
   -0.1672   -0.9618   -1.6356 O   0  0  0  0  0  0  0  0  0  0  0  0
   -1.2180    1.4519   -0.4988 C   0  0  0  0  0  0  0  0  0  0  0  0
   -1.1521    2.4612    0.4576 O   0  0  0  0  0  0  0  0  0  0  0  0
   -0.1380   -0.1297    1.0452 N   0  0  0  0  0  0  0  0  0  0  0  0
    1.2101   -0.0879    0.6420 C   0  0  0  0  0  0  0  0  0  0  0  0
    1.6190    0.5856   -0.3791 N   0  0  0  0  0  0  0  0  0  0  0  0
    3.0549    0.4283   -0.5341 C   0  0  0  0  0  0  0  0  0  0  0  0
    3.3517   -0.8415    0.2751 C   0  0  0  0  0  0  0  0  0  0  0  0
    2.2904   -0.7583    1.2762 N   0  0  0  0  0  0  0  0  0  0  0  0
   -3.9406   -0.5467   -0.3210 H   0  0  0  0  0  0  0  0  0  0  0  0
   -2.5392    0.6969    1.8615 H   0  0  0  0  0  0  0  0  0  0  0  0
   -2.6599   -1.0650    1.3334 H   0  0  0  0  0  0  0  0  0  0  0  0
   -1.4158   -1.9151   -0.3068 H   0  0  0  0  0  0  0  0  0  0  0  0
   -2.2231   -0.8209   -1.4680 H   0  0  0  0  0  0  0  0  0  0  0  0
   -0.0046   -1.8718   -1.9683 H   0  0  0  0  0  0  0  0  0  0  0  0
   -0.4610    1.5237   -1.2789 H   0  0  0  0  0  0  0  0  0  0  0  0
   -2.2167    1.5727   -1.0058 H   0  0  0  0  0  0  0  0  0  0  0  0
   -1.2049    3.3694    0.0676 H   0  0  0  0  0  0  0  0  0  0  0  0
   -0.3245   -0.3839    2.0591 H   0  0  0  0  0  0  0  0  0  0  0  0
    3.6113    1.2555   -0.0443 H   0  0  0  0  0  0  0  0  0  0  0  0
    3.3512    0.2668   -1.5804 H   0  0  0  0  0  0  0  0  0  0  0  0
    4.3547   -0.7982    0.7267 H   0  0  0  0  0  0  0  0  0  0  0  0
    3.2334   -1.7501   -0.3335 H   0  0  0  0  0  0  0  0  0  0  0  0
    2.3664   -1.1287    2.2333 H   0  0  0  0  0  0  0  0  0  0  0  0
  1  2  1  0
  2  3  1  0
  3  4  1  0
  4  5  1  0
  3  6  1  0
  6  7  1  0
  3  8  1  0
  8  9  1  0
  9 10  2  0
 10 11  1  0
 11 12  1  0
 12 13  1  0
 13  9  1  0
  1 14  1  0
  2 15  1  0
  2 16  1  0
  4 17  1  0
  4 18  1  0
  5 19  1  0
  6 20  1  0
  6 21  1  0
  7 22  1  0
  8 23  1  0
 11 24  1  0
 11 25  1  0
 12 26  1  0
 12 27  1  0
 13 28  1  0
M  END
$$$$

     RDKit          3D

 28 28  0  0  0  0  0  0  0  0999 V2000
   -0.1753   -0.5195    1.8063 O   0  0  0  0  0  0  0  0  0  0  0  0
   -1.1311   -1.0444    0.9415 C   0  0  0  0  0  0  0  0  0  0  0  0
   -1.1498   -0.2563   -0.3541 C   0  0  0  0  0  0  0  0  0  0  0  0
   -1.6522    1.1451   -0.0753 C   0  0  0  0  0  0  0  0  0  0  0  0
   -2.8908    0.9802    0.5862 O   0  0  0  0  0  0  0  0  0  0  0  0
   -2.2271   -0.9168   -1.2181 C   0  0  0  0  0  0  0  0  0  0  0  0
   -1.8711   -2.2335   -1.4614 O   0  0  0  0  0  0  0  0  0  0  0  0
    0.1147   -0.2885   -1.0320 N   0  0  0  0  0  0  0  0  0  0  0  0
    1.3306    0.1980   -0.4568 C   0  0  0  0  0  0  0  0  0  0  0  0
    1.3555    1.1542    0.3883 N   0  0  0  0  0  0  0  0  0  0  0  0
    2.7268    1.4352    0.8014 C   0  0  0  0  0  0  0  0  0  0  0  0
    3.5219    0.2231    0.3434 C   0  0  0  0  0  0  0  0  0  0  0  0
    2.6599   -0.2715   -0.7116 N   0  0  0  0  0  0  0  0  0  0  0  0
   -0.5350    0.1214    2.4446 H   0  0  0  0  0  0  0  0  0  0  0  0
   -0.8355   -2.0944    0.7451 H   0  0  0  0  0  0  0  0  0  0  0  0
   -2.0935   -1.0168    1.4504 H   0  0  0  0  0  0  0  0  0  0  0  0
   -1.8000    1.6683   -1.0451 H   0  0  0  0  0  0  0  0  0  0  0  0
   -0.9511    1.6808    0.5920 H   0  0  0  0  0  0  0  0  0  0  0  0
   -3.5570    1.6177    0.2674 H   0  0  0  0  0  0  0  0  0  0  0  0
   -3.1960   -0.8050   -0.7024 H   0  0  0  0  0  0  0  0  0  0  0  0
   -2.2852   -0.3138   -2.1492 H   0  0  0  0  0  0  0  0  0  0  0  0
   -2.4445   -2.7944   -0.8540 H   0  0  0  0  0  0  0  0  0  0  0  0
    0.1568   -0.6931   -2.0102 H   0  0  0  0  0  0  0  0  0  0  0  0
    2.7991    1.5995    1.8919 H   0  0  0  0  0  0  0  0  0  0  0  0
    3.1278    2.3113    0.2645 H   0  0  0  0  0  0  0  0  0  0  0  0
    4.5121    0.5367   -0.0375 H   0  0  0  0  0  0  0  0  0  0  0  0
    3.5933   -0.5542    1.1271 H   0  0  0  0  0  0  0  0  0  0  0  0
    2.8967   -0.8692   -1.5421 H   0  0  0  0  0  0  0  0  0  0  0  0
  1  2  1  0
  2  3  1  0
  3  4  1  0
  4  5  1  0
  3  6  1  0
  6  7  1  0
  3  8  1  0
  8  9  1  0
  9 10  2  0
 10 11  1  0
 11 12  1  0
 12 13  1  0
 13  9  1  0
  1 14  1  0
  2 15  1  0
  2 16  1  0
  4 17  1  0
  4 18  1  0
  5 19  1  0
  6 20  1  0
  6 21  1  0
  7 22  1  0
  8 23  1  0
 11 24  1  0
 11 25  1  0
 12 26  1  0
 12 27  1  0
 13 28  1  0
M  END
$$$$

     RDKit          3D

 28 28  0  0  0  0  0  0  0  0999 V2000
   -3.4303    0.7944   -0.8459 O   0  0  0  0  0  0  0  0  0  0  0  0
   -2.1177    1.1745   -1.1721 C   0  0  0  0  0  0  0  0  0  0  0  0
   -1.1154    0.3236   -0.3897 C   0  0  0  0  0  0  0  0  0  0  0  0
   -1.4495    0.4666    1.0656 C   0  0  0  0  0  0  0  0  0  0  0  0
   -1.3516    1.8042    1.4900 O   0  0  0  0  0  0  0  0  0  0  0  0
   -1.4357   -1.1139   -0.7843 C   0  0  0  0  0  0  0  0  0  0  0  0
   -0.5577   -1.9836   -0.1672 O   0  0  0  0  0  0  0  0  0  0  0  0
    0.1943    0.7389   -0.7475 N   0  0  0  0  0  0  0  0  0  0  0  0
    1.3295    0.1302   -0.1500 C   0  0  0  0  0  0  0  0  0  0  0  0
    1.3114   -0.4619    0.9723 N   0  0  0  0  0  0  0  0  0  0  0  0
    2.6028   -0.9947    1.3514 C   0  0  0  0  0  0  0  0  0  0  0  0
    3.5421   -0.3196    0.3916 C   0  0  0  0  0  0  0  0  0  0  0  0
    2.6694    0.0752   -0.6852 N   0  0  0  0  0  0  0  0  0  0  0  0
   -4.0546    1.1438   -1.4999 H   0  0  0  0  0  0  0  0  0  0  0  0
   -2.0098    1.0091   -2.2634 H   0  0  0  0  0  0  0  0  0  0  0  0
   -1.9666    2.2535   -0.9977 H   0  0  0  0  0  0  0  0  0  0  0  0
   -2.5487    0.2231    1.1611 H   0  0  0  0  0  0  0  0  0  0  0  0
   -0.9326   -0.2287    1.7276 H   0  0  0  0  0  0  0  0  0  0  0  0
   -0.9185    1.8435    2.4016 H   0  0  0  0  0  0  0  0  0  0  0  0
   -2.4590   -1.3143   -0.3852 H   0  0  0  0  0  0  0  0  0  0  0  0
   -1.4535   -1.2247   -1.8914 H   0  0  0  0  0  0  0  0  0  0  0  0
   -0.9274   -2.8506    0.0695 H   0  0  0  0  0  0  0  0  0  0  0  0
    0.3366    1.4929   -1.4532 H   0  0  0  0  0  0  0  0  0  0  0  0
    2.5921   -2.0778    1.1302 H   0  0  0  0  0  0  0  0  0  0  0  0
    2.8526   -0.7757    2.4098 H   0  0  0  0  0  0  0  0  0  0  0  0
    4.3741   -0.9829    0.0549 H   0  0  0  0  0  0  0  0  0  0  0  0
    4.0067    0.5661    0.8751 H   0  0  0  0  0  0  0  0  0  0  0  0
    2.9171    0.2887   -1.6679 H   0  0  0  0  0  0  0  0  0  0  0  0
  1  2  1  0
  2  3  1  0
  3  4  1  0
  4  5  1  0
  3  6  1  0
  6  7  1  0
  3  8  1  0
  8  9  1  0
  9 10  2  0
 10 11  1  0
 11 12  1  0
 12 13  1  0
 13  9  1  0
  1 14  1  0
  2 15  1  0
  2 16  1  0
  4 17  1  0
  4 18  1  0
  5 19  1  0
  6 20  1  0
  6 21  1  0
  7 22  1  0
  8 23  1  0
 11 24  1  0
 11 25  1  0
 12 26  1  0
 12 27  1  0
 13 28  1  0
M  END
$$$$
