
     RDKit          3D

 26 25  0  0  0  0  0  0  0  0999 V2000
   -4.0115    0.4956    1.0698 C   0  0  0  0  0  0  0  0  0  0  0  0
   -2.6197    0.0656    0.7483 C   0  0  0  0  0  0  0  0  0  0  0  0
   -1.8548   -0.1864    1.6989 O   0  0  0  0  0  0  0  0  0  0  0  0
   -2.1922   -0.0491   -0.5963 N   0  0  0  0  0  0  0  0  0  0  0  0
   -0.8437   -0.4640   -0.9549 C   0  0  0  0  0  0  0  0  0  0  0  0
    0.1582    0.4894   -0.3939 C   0  0  2  0  0  0  0  0  0  0  0  0
   -0.1419    1.7569   -0.9331 O   0  0  0  0  0  0  0  0  0  0  0  0
    1.5910    0.1621   -0.7883 C   0  0  1  0  0  0  0  0  0  0  0  0
    2.4236    1.1629   -0.2707 O   0  0  0  0  0  0  0  0  0  0  0  0
    1.9638   -1.1239   -0.1914 C   0  0  0  0  0  0  0  0  0  0  0  0
    1.4462   -2.1936   -0.5020 O   0  0  0  0  0  0  0  0  0  0  0  0
    3.0279   -1.1806    0.8568 C   0  0  0  0  0  0  0  0  0  0  0  0
    3.5597    0.0467    1.1560 O   0  0  0  0  0  0  0  0  0  0  0  0
   -4.0531    1.0273    2.0457 H   0  0  0  0  0  0  0  0  0  0  0  0
   -4.6469   -0.4208    1.0809 H   0  0  0  0  0  0  0  0  0  0  0  0
   -4.4145    1.1662    0.3033 H   0  0  0  0  0  0  0  0  0  0  0  0
   -2.8899    0.1783   -1.3257 H   0  0  0  0  0  0  0  0  0  0  0  0
   -0.7901   -0.5218   -2.0463 H   0  0  0  0  0  0  0  0  0  0  0  0
   -0.7192   -1.5012   -0.5624 H   0  0  0  0  0  0  0  0  0  0  0  0
    0.1101    0.5372    0.6899 H   0  0  0  0  0  0  0  0  0  0  0  0
    0.3609    1.8291   -1.7713 H   0  0  0  0  0  0  0  0  0  0  0  0
    1.6977    0.1291   -1.8829 H   0  0  0  0  0  0  0  0  0  0  0  0
    1.9443    1.9179    0.1034 H   0  0  0  0  0  0  0  0  0  0  0  0
    3.8045   -1.8907    0.4868 H   0  0  0  0  0  0  0  0  0  0  0  0
    2.6201   -1.6160    1.7944 H   0  0  0  0  0  0  0  0  0  0  0  0
    4.4692    0.1839    0.8406 H   0  0  0  0  0  0  0  0  0  0  0  0
  1  2  1  0
  2  3  2  0
  2  4  1  0
  4  5  1  0
  5  6  1  0
  6  7  1  0
  6  8  1  0
  8  9  1  0
  8 10  1  0
 10 11  2  0
 10 12  1  0
 12 13  1  0
  1 14  1  0
  1 15  1  0
  1 16  1  0
  4 17  1  0
  5 18  1  0
  5 19  1  0
  6 20  1  1
  7 21  1  0
  8 22  1  6
  9 23  1  0
 12 24  1  0
 12 25  1  0
 13 26  1  0
M  END
$$$$

     RDKit          3D

 26 25  0  0  0  0  0  0  0  0999 V2000
    4.1098   -0.0760   -1.3711 C   0  0  0  0  0  0  0  0  0  0  0  0
    2.6362   -0.2672   -1.5239 C   0  0  0  0  0  0  0  0  0  0  0  0
    2.0962   -0.4042   -2.6471 O   0  0  0  0  0  0  0  0  0  0  0  0
    1.7657   -0.3028   -0.3826 N   0  0  0  0  0  0  0  0  0  0  0  0
    0.3222   -0.4906   -0.5408 C   0  0  0  0  0  0  0  0  0  0  0  0
   -0.2451   -0.4726    0.8611 C   0  0  2  0  0  0  0  0  0  0  0  0
    0.4309   -1.5804    1.4801 O   0  0  0  0  0  0  0  0  0  0  0  0
   -1.7081   -0.6725    0.9727 C   0  0  1  0  0  0  0  0  0  0  0  0
   -1.9199   -0.8569    2.3808 O   0  0  0  0  0  0  0  0  0  0  0  0
   -2.5023    0.5175    0.6461 C   0  0  0  0  0  0  0  0  0  0  0  0
   -3.1890    1.0343    1.5286 O   0  0  0  0  0  0  0  0  0  0  0  0
   -2.5610    1.1708   -0.6767 C   0  0  0  0  0  0  0  0  0  0  0  0
   -3.6042    2.1234   -0.6995 O   0  0  0  0  0  0  0  0  0  0  0  0
    4.6835   -0.9869   -1.5388 H   0  0  0  0  0  0  0  0  0  0  0  0
    4.4094    0.7561   -2.0640 H   0  0  0  0  0  0  0  0  0  0  0  0
    4.3158    0.3200   -0.3487 H   0  0  0  0  0  0  0  0  0  0  0  0
    2.2369   -0.1869    0.5396 H   0  0  0  0  0  0  0  0  0  0  0  0
    0.2297   -1.5332   -0.9776 H   0  0  0  0  0  0  0  0  0  0  0  0
   -0.1050    0.2106   -1.2462 H   0  0  0  0  0  0  0  0  0  0  0  0
    0.0654    0.4489    1.3542 H   0  0  0  0  0  0  0  0  0  0  0  0
    0.0321   -2.4137    1.0803 H   0  0  0  0  0  0  0  0  0  0  0  0
   -2.0805   -1.5885    0.4583 H   0  0  0  0  0  0  0  0  0  0  0  0
   -1.7779    0.0493    2.7535 H   0  0  0  0  0  0  0  0  0  0  0  0
   -1.6425    1.8206   -0.8437 H   0  0  0  0  0  0  0  0  0  0  0  0
   -2.6873    0.4948   -1.5174 H   0  0  0  0  0  0  0  0  0  0  0  0
   -3.3112    2.8860   -0.1079 H   0  0  0  0  0  0  0  0  0  0  0  0
  1  2  1  0
  2  3  2  0
  2  4  1  0
  4  5  1  0
  5  6  1  0
  6  7  1  0
  6  8  1  0
  8  9  1  0
  8 10  1  0
 10 11  2  0
 10 12  1  0
 12 13  1  0
  1 14  1  0
  1 15  1  0
  1 16  1  0
  4 17  1  0
  5 18  1  0
  5 19  1  0
  6 20  1  1
  7 21  1  0
  8 22  1  6
  9 23  1  0
 12 24  1  0
 12 25  1  0
 13 26  1  0
M  END
$$$$

     RDKit          3D

 26 25  0  0  0  0  0  0  0  0999 V2000
   -3.1248    1.3725    1.0790 C   0  0  0  0  0  0  0  0  0  0  0  0
   -2.1291    0.2816    1.2012 C   0  0  0  0  0  0  0  0  0  0  0  0
   -1.9496   -0.2296    2.3258 O   0  0  0  0  0  0  0  0  0  0  0  0
   -1.3752   -0.1990    0.0833 N   0  0  0  0  0  0  0  0  0  0  0  0
   -0.4314   -1.2580    0.2869 C   0  0  0  0  0  0  0  0  0  0  0  0
    0.2934   -1.6737   -0.9451 C   0  0  2  0  0  0  0  0  0  0  0  0
    1.1800   -2.7180   -0.5949 O   0  0  0  0  0  0  0  0  0  0  0  0
    1.2177   -0.5353   -1.3981 C   0  0  1  0  0  0  0  0  0  0  0  0
    0.5255    0.5865   -1.7852 O   0  0  0  0  0  0  0  0  0  0  0  0
    2.0800   -0.2197   -0.2292 C   0  0  0  0  0  0  0  0  0  0  0  0
    2.7639   -1.1153    0.2387 O   0  0  0  0  0  0  0  0  0  0  0  0
    2.1277    1.1363    0.3718 C   0  0  0  0  0  0  0  0  0  0  0  0
    1.2736    1.9931   -0.3175 O   0  0  0  0  0  0  0  0  0  0  0  0
   -4.1410    0.9784    1.2259 H   0  0  0  0  0  0  0  0  0  0  0  0
   -2.9377    2.0623    1.9511 H   0  0  0  0  0  0  0  0  0  0  0  0
   -2.9876    1.9512    0.1535 H   0  0  0  0  0  0  0  0  0  0  0  0
   -1.5764    0.2724   -0.8243 H   0  0  0  0  0  0  0  0  0  0  0  0
   -0.9959   -2.1343    0.6890 H   0  0  0  0  0  0  0  0  0  0  0  0
    0.2916   -0.9805    1.0757 H   0  0  0  0  0  0  0  0  0  0  0  0
   -0.3373   -2.0461   -1.7517 H   0  0  0  0  0  0  0  0  0  0  0  0
    0.8297   -3.2002    0.2048 H   0  0  0  0  0  0  0  0  0  0  0  0
    1.8508   -0.9142   -2.2482 H   0  0  0  0  0  0  0  0  0  0  0  0
    1.0468    1.0225   -2.5265 H   0  0  0  0  0  0  0  0  0  0  0  0
    3.1764    1.5186    0.2600 H   0  0  0  0  0  0  0  0  0  0  0  0
    1.9064    1.1305    1.4547 H   0  0  0  0  0  0  0  0  0  0  0  0
    1.4226    2.9179    0.0191 H   0  0  0  0  0  0  0  0  0  0  0  0
  1  2  1  0
  2  3  2  0
  2  4  1  0
  4  5  1  0
  5  6  1  0
  6  7  1  0
  6  8  1  0
  8  9  1  0
  8 10  1  0
 10 11  2  0
 10 12  1  0
 12 13  1  0
  1 14  1  0
  1 15  1  0
  1 16  1  0
  4 17  1  0
  5 18  1  0
  5 19  1  0
  6 20  1  6
  7 21  1  0
  8 22  1  6
  9 23  1  0
 12 24  1  0
 12 25  1  0
 13 26  1  0
M  END
$$$$

     RDKit          3D

 26 25  0  0  0  0  0  0  0  0999 V2000
    3.6621    0.8489    0.2448 C   0  0  0  0  0  0  0  0  0  0  0  0
    2.5442    0.1021   -0.4213 C   0  0  0  0  0  0  0  0  0  0  0  0
    2.2177    0.4209   -1.5889 O   0  0  0  0  0  0  0  0  0  0  0  0
    1.9190   -0.9293    0.3184 N   0  0  0  0  0  0  0  0  0  0  0  0
    0.8498   -1.6973   -0.2083 C   0  0  0  0  0  0  0  0  0  0  0  0
   -0.3945   -0.9798   -0.5761 C   0  0  2  0  0  0  0  0  0  0  0  0
   -0.3116   -0.0098   -1.5281 O   0  0  0  0  0  0  0  0  0  0  0  0
   -1.1183   -0.4048    0.6338 C   0  0  1  0  0  0  0  0  0  0  0  0
   -0.4640    0.6821    1.1721 O   0  0  0  0  0  0  0  0  0  0  0  0
   -2.4800   -0.0114    0.1771 C   0  0  0  0  0  0  0  0  0  0  0  0
   -3.2385   -0.8139   -0.3326 O   0  0  0  0  0  0  0  0  0  0  0  0
   -2.9286    1.4043    0.3479 C   0  0  0  0  0  0  0  0  0  0  0  0
   -4.2033    1.6011   -0.1227 O   0  0  0  0  0  0  0  0  0  0  0  0
    3.3210    1.8038    0.6745 H   0  0  0  0  0  0  0  0  0  0  0  0
    4.0745    0.2532    1.1023 H   0  0  0  0  0  0  0  0  0  0  0  0
    4.5025    1.0189   -0.4509 H   0  0  0  0  0  0  0  0  0  0  0  0
    2.2770   -1.1207    1.3022 H   0  0  0  0  0  0  0  0  0  0  0  0
    0.5463   -2.4749    0.5561 H   0  0  0  0  0  0  0  0  0  0  0  0
    1.2038   -2.3434   -1.0707 H   0  0  0  0  0  0  0  0  0  0  0  0
   -1.1075   -1.7654   -0.9724 H   0  0  0  0  0  0  0  0  0  0  0  0
   -0.5861   -0.2889   -2.4425 H   0  0  0  0  0  0  0  0  0  0  0  0
   -1.2611   -1.2248    1.3906 H   0  0  0  0  0  0  0  0  0  0  0  0
    0.3845    0.3841    1.5960 H   0  0  0  0  0  0  0  0  0  0  0  0
   -2.2612    2.1252   -0.1553 H   0  0  0  0  0  0  0  0  0  0  0  0
   -2.8950    1.6168    1.4446 H   0  0  0  0  0  0  0  0  0  0  0  0
   -4.2526    1.8031   -1.0906 H   0  0  0  0  0  0  0  0  0  0  0  0
  1  2  1  0
  2  3  2  0
  2  4  1  0
  4  5  1  0
  5  6  1  0
  6  7  1  0
  6  8  1  0
  8  9  1  0
  8 10  1  0
 10 11  2  0
 10 12  1  0
 12 13  1  0
  1 14  1  0
  1 15  1  0
  1 16  1  0
  4 17  1  0
  5 18  1  0
  5 19  1  0
  6 20  1  6
  7 21  1  0
  8 22  1  1
  9 23  1  0
 12 24  1  0
 12 25  1  0
 13 26  1  0
M  END
$$$$

     RDKit          3D

 26 25  0  0  0  0  0  0  0  0999 V2000
    4.4824    0.7241    0.1911 C   0  0  0  0  0  0  0  0  0  0  0  0
    3.1362    0.8813   -0.3994 C   0  0  0  0  0  0  0  0  0  0  0  0
    2.9775    1.8099   -1.2326 O   0  0  0  0  0  0  0  0  0  0  0  0
    2.0585    0.0374   -0.0583 N   0  0  0  0  0  0  0  0  0  0  0  0
    0.7306    0.2185   -0.6626 C   0  0  0  0  0  0  0  0  0  0  0  0
   -0.2021   -0.8401   -0.0921 C   0  0  2  0  0  0  0  0  0  0  0  0
    0.3823   -2.0723   -0.4416 O   0  0  0  0  0  0  0  0  0  0  0  0
   -1.5710   -0.8129   -0.7286 C   0  0  1  0  0  0  0  0  0  0  0  0
   -2.2599   -1.9268   -0.1822 O   0  0  0  0  0  0  0  0  0  0  0  0
   -2.3244    0.4321   -0.4789 C   0  0  0  0  0  0  0  0  0  0  0  0
   -1.8864    1.4809   -0.9021 O   0  0  0  0  0  0  0  0  0  0  0  0
   -3.5859    0.3836    0.2739 C   0  0  0  0  0  0  0  0  0  0  0  0
   -4.1840    1.6129    0.4342 O   0  0  0  0  0  0  0  0  0  0  0  0
    4.5259   -0.2416    0.7322 H   0  0  0  0  0  0  0  0  0  0  0  0
    4.6596    1.5580    0.8958 H   0  0  0  0  0  0  0  0  0  0  0  0
    5.2420    0.7744   -0.6249 H   0  0  0  0  0  0  0  0  0  0  0  0
    2.2384   -0.7216    0.6398 H   0  0  0  0  0  0  0  0  0  0  0  0
    0.3527    1.2216   -0.3874 H   0  0  0  0  0  0  0  0  0  0  0  0
    0.8049    0.1195   -1.7469 H   0  0  0  0  0  0  0  0  0  0  0  0
   -0.2219   -0.7884    1.0113 H   0  0  0  0  0  0  0  0  0  0  0  0
   -0.2974   -2.7618   -0.6183 H   0  0  0  0  0  0  0  0  0  0  0  0
   -1.4371   -1.0198   -1.8041 H   0  0  0  0  0  0  0  0  0  0  0  0
   -2.0400   -2.0141    0.7975 H   0  0  0  0  0  0  0  0  0  0  0  0
   -3.3870   -0.0951    1.2622 H   0  0  0  0  0  0  0  0  0  0  0  0
   -4.3163   -0.2569   -0.2981 H   0  0  0  0  0  0  0  0  0  0  0  0
   -3.8778    2.2972   -0.2117 H   0  0  0  0  0  0  0  0  0  0  0  0
  1  2  1  0
  2  3  2  0
  2  4  1  0
  4  5  1  0
  5  6  1  0
  6  7  1  0
  6  8  1  0
  8  9  1  0
  8 10  1  0
 10 11  2  0
 10 12  1  0
 12 13  1  0
  1 14  1  0
  1 15  1  0
  1 16  1  0
  4 17  1  0
  5 18  1  0
  5 19  1  0
  6 20  1  1
  7 21  1  0
  8 22  1  6
  9 23  1  0
 12 24  1  0
 12 25  1  0
 13 26  1  0
M  END
$$$$

     RDKit          3D

 26 25  0  0  0  0  0  0  0  0999 V2000
   -3.9874    0.7158   -1.2791 C   0  0  0  0  0  0  0  0  0  0  0  0
   -2.5434    0.4198   -1.0033 C   0  0  0  0  0  0  0  0  0  0  0  0
   -1.6807    0.7926   -1.8235 O   0  0  0  0  0  0  0  0  0  0  0  0
   -2.1244   -0.2703    0.1595 N   0  0  0  0  0  0  0  0  0  0  0  0
   -0.8008   -0.6144    0.5484 C   0  0  0  0  0  0  0  0  0  0  0  0
    0.1690    0.4871    0.7659 C   0  0  2  0  0  0  0  0  0  0  0  0
    0.4585    1.2478   -0.3371 O   0  0  0  0  0  0  0  0  0  0  0  0
    1.4920   -0.0316    1.3600 C   0  0  1  0  0  0  0  0  0  0  0  0
    1.0973   -0.8413    2.4476 O   0  0  0  0  0  0  0  0  0  0  0  0
    2.2545   -0.8697    0.4374 C   0  0  0  0  0  0  0  0  0  0  0  0
    2.1676   -2.0936    0.4797 O   0  0  0  0  0  0  0  0  0  0  0  0
    3.1657   -0.3117   -0.5847 C   0  0  0  0  0  0  0  0  0  0  0  0
    3.3283    1.0503   -0.3592 O   0  0  0  0  0  0  0  0  0  0  0  0
   -4.1823    1.7895   -1.3361 H   0  0  0  0  0  0  0  0  0  0  0  0
   -4.6412    0.2845   -0.5136 H   0  0  0  0  0  0  0  0  0  0  0  0
   -4.2239    0.1884   -2.2413 H   0  0  0  0  0  0  0  0  0  0  0  0
   -2.9581   -0.5439    0.7924 H   0  0  0  0  0  0  0  0  0  0  0  0
   -0.8784   -1.2421    1.4876 H   0  0  0  0  0  0  0  0  0  0  0  0
   -0.3076   -1.3274   -0.1706 H   0  0  0  0  0  0  0  0  0  0  0  0
   -0.2438    1.2445    1.5233 H   0  0  0  0  0  0  0  0  0  0  0  0
    0.8241    0.6597   -1.0541 H   0  0  0  0  0  0  0  0  0  0  0  0
    2.0509    0.8250    1.7510 H   0  0  0  0  0  0  0  0  0  0  0  0
    1.2345   -1.7803    2.2502 H   0  0  0  0  0  0  0  0  0  0  0  0
    4.1745   -0.7703   -0.4877 H   0  0  0  0  0  0  0  0  0  0  0  0
    2.8354   -0.5115   -1.6262 H   0  0  0  0  0  0  0  0  0  0  0  0
    3.3197    1.5029   -1.2488 H   0  0  0  0  0  0  0  0  0  0  0  0
  1  2  1  0
  2  3  2  0
  2  4  1  0
  4  5  1  0
  5  6  1  0
  6  7  1  0
  6  8  1  0
  8  9  1  0
  8 10  1  0
 10 11  2  0
 10 12  1  0
 12 13  1  0
  1 14  1  0
  1 15  1  0
  1 16  1  0
  4 17  1  0
  5 18  1  0
  5 19  1  0
  6 20  1  1
  7 21  1  0
  8 22  1  1
  9 23  1  0
 12 24  1  0
 12 25  1  0
 13 26  1  0
M  END
$$$$

     RDKit          3D

 26 25  0  0  0  0  0  0  0  0999 V2000
    4.1597    0.6585   -0.2186 C   0  0  0  0  0  0  0  0  0  0  0  0
    2.6925    0.4555   -0.3879 C   0  0  0  0  0  0  0  0  0  0  0  0
    1.9881    1.4672   -0.5841 O   0  0  0  0  0  0  0  0  0  0  0  0
    2.0905   -0.8231   -0.3335 N   0  0  0  0  0  0  0  0  0  0  0  0
    0.6685   -1.0567   -0.4934 C   0  0  0  0  0  0  0  0  0  0  0  0
   -0.0983   -0.3353    0.5581 C   0  0  2  0  0  0  0  0  0  0  0  0
    0.3388   -0.8271    1.8063 O   0  0  0  0  0  0  0  0  0  0  0  0
   -1.5837   -0.6045    0.5112 C   0  0  1  0  0  0  0  0  0  0  0  0
   -2.1474    0.0797    1.5812 O   0  0  0  0  0  0  0  0  0  0  0  0
   -2.2278   -0.2134   -0.7404 C   0  0  0  0  0  0  0  0  0  0  0  0
   -1.8996   -0.6900   -1.8237 O   0  0  0  0  0  0  0  0  0  0  0  0
   -3.3205    0.7872   -0.7718 C   0  0  0  0  0  0  0  0  0  0  0  0
   -3.5931    1.2450    0.5109 O   0  0  0  0  0  0  0  0  0  0  0  0
    4.3173    0.9508    0.8471 H   0  0  0  0  0  0  0  0  0  0  0  0
    4.4552    1.4723   -0.9091 H   0  0  0  0  0  0  0  0  0  0  0  0
    4.7177   -0.2764   -0.4277 H   0  0  0  0  0  0  0  0  0  0  0  0
    2.7539   -1.6335   -0.1639 H   0  0  0  0  0  0  0  0  0  0  0  0
    0.4874   -2.1338   -0.5049 H   0  0  0  0  0  0  0  0  0  0  0  0
    0.4106   -0.6462   -1.5005 H   0  0  0  0  0  0  0  0  0  0  0  0
    0.0390    0.7511    0.4750 H   0  0  0  0  0  0  0  0  0  0  0  0
   -0.1281   -1.6560    2.0505 H   0  0  0  0  0  0  0  0  0  0  0  0
   -1.7723   -1.6999    0.6903 H   0  0  0  0  0  0  0  0  0  0  0  0
   -1.4969    0.5528    2.1398 H   0  0  0  0  0  0  0  0  0  0  0  0
   -4.2654    0.3147   -1.1420 H   0  0  0  0  0  0  0  0  0  0  0  0
   -3.1146    1.6248   -1.4654 H   0  0  0  0  0  0  0  0  0  0  0  0
   -3.4715    2.2364    0.5683 H   0  0  0  0  0  0  0  0  0  0  0  0
  1  2  1  0
  2  3  2  0
  2  4  1  0
  4  5  1  0
  5  6  1  0
  6  7  1  0
  6  8  1  0
  8  9  1  0
  8 10  1  0
 10 11  2  0
 10 12  1  0
 12 13  1  0
  1 14  1  0
  1 15  1  0
  1 16  1  0
  4 17  1  0
  5 18  1  0
  5 19  1  0
  6 20  1  1
  7 21  1  0
  8 22  1  1
  9 23  1  0
 12 24  1  0
 12 25  1  0
 13 26  1  0
M  END
$$$$

     RDKit          3D

 26 25  0  0  0  0  0  0  0  0999 V2000
    4.3839   -0.4501   -1.2081 C   0  0  0  0  0  0  0  0  0  0  0  0
    2.9660   -0.8407   -1.1089 C   0  0  0  0  0  0  0  0  0  0  0  0
    2.5129   -1.7732   -1.7957 O   0  0  0  0  0  0  0  0  0  0  0  0
    2.0592   -0.1701   -0.2266 N   0  0  0  0  0  0  0  0  0  0  0  0
    0.6626   -0.6012   -0.1702 C   0  0  0  0  0  0  0  0  0  0  0  0
   -0.0584    0.2680    0.8302 C   0  0  2  0  0  0  0  0  0  0  0  0
    0.5554    0.1318    2.0968 O   0  0  0  0  0  0  0  0  0  0  0  0
   -1.4979   -0.1610    1.0571 C   0  0  1  0  0  0  0  0  0  0  0  0
   -2.0728    0.6881    2.0363 O   0  0  0  0  0  0  0  0  0  0  0  0
   -2.3440   -0.0446   -0.1484 C   0  0  0  0  0  0  0  0  0  0  0  0
   -2.0872   -0.7070   -1.1322 O   0  0  0  0  0  0  0  0  0  0  0  0
   -3.5150    0.8663   -0.2027 C   0  0  0  0  0  0  0  0  0  0  0  0
   -4.1632    0.8170   -1.4241 O   0  0  0  0  0  0  0  0  0  0  0  0
    4.4529    0.2790   -2.0622 H   0  0  0  0  0  0  0  0  0  0  0  0
    4.7465    0.0687   -0.3176 H   0  0  0  0  0  0  0  0  0  0  0  0
    5.0546   -1.2904   -1.4152 H   0  0  0  0  0  0  0  0  0  0  0  0
    2.3787    0.6040    0.3613 H   0  0  0  0  0  0  0  0  0  0  0  0
    0.5958   -1.6674    0.1116 H   0  0  0  0  0  0  0  0  0  0  0  0
    0.1996   -0.4836   -1.1774 H   0  0  0  0  0  0  0  0  0  0  0  0
   -0.0175    1.3199    0.5444 H   0  0  0  0  0  0  0  0  0  0  0  0
    0.7220   -0.8285    2.2236 H   0  0  0  0  0  0  0  0  0  0  0  0
   -1.4783   -1.1772    1.4757 H   0  0  0  0  0  0  0  0  0  0  0  0
   -1.5819    1.5260    1.9804 H   0  0  0  0  0  0  0  0  0  0  0  0
   -4.2352    0.6826    0.6270 H   0  0  0  0  0  0  0  0  0  0  0  0
   -3.1096    1.9084   -0.0786 H   0  0  0  0  0  0  0  0  0  0  0  0
   -5.1292    1.0352   -1.2997 H   0  0  0  0  0  0  0  0  0  0  0  0
  1  2  1  0
  2  3  2  0
  2  4  1  0
  4  5  1  0
  5  6  1  0
  6  7  1  0
  6  8  1  0
  8  9  1  0
  8 10  1  0
 10 11  2  0
 10 12  1  0
 12 13  1  0
  1 14  1  0
  1 15  1  0
  1 16  1  0
  4 17  1  0
  5 18  1  0
  5 19  1  0
  6 20  1  6
  7 21  1  0
  8 22  1  1
  9 23  1  0
 12 24  1  0
 12 25  1  0
 13 26  1  0
M  END
$$$$
