
     RDKit          3D

 24 24  0  0  0  0  0  0  0  0999 V2000
    2.6129    0.4603   -0.2917 C   0  0  0  0  0  0  0  0  0  0  0  0
    2.1414   -0.8666    0.2869 C   0  0  0  0  0  0  0  0  0  0  0  0
    0.9246   -0.6614    1.1260 C   0  0  0  0  0  0  0  0  0  0  0  0
   -0.2095   -0.0828    0.3570 C   0  0  0  0  0  0  0  0  0  0  0  0
    0.0861    1.2067   -0.2260 N   0  0  0  0  0  0  0  0  0  0  0  0
   -1.3865    0.1420    1.2734 C   0  0  0  0  0  0  0  0  0  0  0  0
   -1.3200   -0.0678    2.5084 O   0  0  0  0  0  0  0  0  0  0  0  0
   -2.5752    0.6070    0.6448 N   0  0  0  0  0  0  0  0  0  0  0  0
   -2.8706    0.3008   -0.7127 C   0  0  0  0  0  0  0  0  0  0  0  0
   -3.9156    0.7086   -1.2689 O   0  0  0  0  0  0  0  0  0  0  0  0
   -1.8946   -0.5035   -1.3988 N   0  0  0  0  0  0  0  0  0  0  0  0
   -0.7151   -0.9517   -0.7357 C   0  0  0  0  0  0  0  0  0  0  0  0
   -0.1776   -2.0262   -1.0964 O   0  0  0  0  0  0  0  0  0  0  0  0
    2.3727    1.2784    0.4185 H   0  0  0  0  0  0  0  0  0  0  0  0
    3.7327    0.4680   -0.3701 H   0  0  0  0  0  0  0  0  0  0  0  0
    2.1504    0.6724   -1.2759 H   0  0  0  0  0  0  0  0  0  0  0  0
    2.0370   -1.5827   -0.5378 H   0  0  0  0  0  0  0  0  0  0  0  0
    3.0101   -1.2541    0.8968 H   0  0  0  0  0  0  0  0  0  0  0  0
    1.1847    0.0480    1.9308 H   0  0  0  0  0  0  0  0  0  0  0  0
    0.5899   -1.5960    1.5992 H   0  0  0  0  0  0  0  0  0  0  0  0
   -0.2845    1.9996    0.3373 H   0  0  0  0  0  0  0  0  0  0  0  0
   -0.1755    1.2644   -1.2326 H   0  0  0  0  0  0  0  0  0  0  0  0
   -3.2508    1.1961    1.2177 H   0  0  0  0  0  0  0  0  0  0  0  0
   -2.0671   -0.7596   -2.4097 H   0  0  0  0  0  0  0  0  0  0  0  0
  1  2  1  0
  2  3  1  0
  3  4  1  0
  4  5  1  0
  4  6  1  0
  6  7  2  0
  6  8  1  0
  8  9  1  0
  9 10  2  0
  9 11  1  0
 11 12  1  0
 12 13  2  0
 12  4  1  0
  1 14  1  0
  1 15  1  0
  1 16  1  0
  2 17  1  0
  2 18  1  0
  3 19  1  0
  3 20  1  0
  5 21  1  0
  5 22  1  0
  8 23  1  0
 11 24  1  0
M  END
$$$$

     RDKit          3D

 24 24  0  0  0  0  0  0  0  0999 V2000
    2.7594   -0.0989    0.1701 C   0  0  0  0  0  0  0  0  0  0  0  0
    1.8303    1.0679    0.3817 C   0  0  0  0  0  0  0  0  0  0  0  0
    0.6416    0.9570   -0.5246 C   0  0  0  0  0  0  0  0  0  0  0  0
   -0.1725   -0.2825   -0.3159 C   0  0  0  0  0  0  0  0  0  0  0  0
    0.6176   -1.4954   -0.5430 N   0  0  0  0  0  0  0  0  0  0  0  0
   -0.7639   -0.3957    1.0164 C   0  0  0  0  0  0  0  0  0  0  0  0
   -0.1099   -0.8280    1.9825 O   0  0  0  0  0  0  0  0  0  0  0  0
   -2.1049   -0.0113    1.2321 N   0  0  0  0  0  0  0  0  0  0  0  0
   -2.9992    0.2323    0.1792 C   0  0  0  0  0  0  0  0  0  0  0  0
   -4.1924    0.5744    0.3760 O   0  0  0  0  0  0  0  0  0  0  0  0
   -2.5631    0.0938   -1.1580 N   0  0  0  0  0  0  0  0  0  0  0  0
   -1.2268   -0.2895   -1.3917 C   0  0  0  0  0  0  0  0  0  0  0  0
   -0.8670   -0.6549   -2.5232 O   0  0  0  0  0  0  0  0  0  0  0  0
    2.7224   -0.4394   -0.8809 H   0  0  0  0  0  0  0  0  0  0  0  0
    3.8225    0.1668    0.3676 H   0  0  0  0  0  0  0  0  0  0  0  0
    2.4916   -0.9545    0.8192 H   0  0  0  0  0  0  0  0  0  0  0  0
    2.3893    1.9810    0.0776 H   0  0  0  0  0  0  0  0  0  0  0  0
    1.5627    1.2110    1.4425 H   0  0  0  0  0  0  0  0  0  0  0  0
   -0.0150    1.8237   -0.5073 H   0  0  0  0  0  0  0  0  0  0  0  0
    1.0492    0.8923   -1.5743 H   0  0  0  0  0  0  0  0  0  0  0  0
    0.1457   -2.3286   -0.1633 H   0  0  0  0  0  0  0  0  0  0  0  0
    0.6911   -1.6019   -1.5789 H   0  0  0  0  0  0  0  0  0  0  0  0
   -2.5056    0.1133    2.2137 H   0  0  0  0  0  0  0  0  0  0  0  0
   -3.2030    0.2673   -1.9851 H   0  0  0  0  0  0  0  0  0  0  0  0
  1  2  1  0
  2  3  1  0
  3  4  1  0
  4  5  1  0
  4  6  1  0
  6  7  2  0
  6  8  1  0
  8  9  1  0
  9 10  2  0
  9 11  1  0
 11 12  1  0
 12 13  2  0
 12  4  1  0
  1 14  1  0
  1 15  1  0
  1 16  1  0
  2 17  1  0
  2 18  1  0
  3 19  1  0
  3 20  1  0
  5 21  1  0
  5 22  1  0
  8 23  1  0
 11 24  1  0
M  END
$$$$

     RDKit          3D

 24 24  0  0  0  0  0  0  0  0999 V2000
    3.3120   -0.6276    0.6651 C   0  0  0  0  0  0  0  0  0  0  0  0
    2.0300   -0.3842   -0.1057 C   0  0  0  0  0  0  0  0  0  0  0  0
    0.8422   -0.2766    0.7902 C   0  0  0  0  0  0  0  0  0  0  0  0
   -0.4170   -0.0395    0.0209 C   0  0  0  0  0  0  0  0  0  0  0  0
   -0.5614   -1.1694   -0.9082 N   0  0  0  0  0  0  0  0  0  0  0  0
   -1.6148   -0.0588    0.9316 C   0  0  0  0  0  0  0  0  0  0  0  0
   -1.4584   -0.3607    2.1175 O   0  0  0  0  0  0  0  0  0  0  0  0
   -2.8769    0.2742    0.3764 N   0  0  0  0  0  0  0  0  0  0  0  0
   -2.9451    1.1141   -0.8010 C   0  0  0  0  0  0  0  0  0  0  0  0
   -4.0647    1.4072   -1.2929 O   0  0  0  0  0  0  0  0  0  0  0  0
   -1.7164    1.5634   -1.3372 N   0  0  0  0  0  0  0  0  0  0  0  0
   -0.4490    1.2058   -0.7415 C   0  0  0  0  0  0  0  0  0  0  0  0
    0.5512    1.9685   -0.9011 O   0  0  0  0  0  0  0  0  0  0  0  0
    3.2916   -0.2189    1.6802 H   0  0  0  0  0  0  0  0  0  0  0  0
    3.5480   -1.7096    0.6709 H   0  0  0  0  0  0  0  0  0  0  0  0
    4.1637   -0.1052    0.1392 H   0  0  0  0  0  0  0  0  0  0  0  0
    2.1723    0.4414   -0.8124 H   0  0  0  0  0  0  0  0  0  0  0  0
    1.8567   -1.2912   -0.7600 H   0  0  0  0  0  0  0  0  0  0  0  0
    0.9693    0.5277    1.5678 H   0  0  0  0  0  0  0  0  0  0  0  0
    0.6757   -1.2303    1.3773 H   0  0  0  0  0  0  0  0  0  0  0  0
   -0.5467   -2.0747   -0.4109 H   0  0  0  0  0  0  0  0  0  0  0  0
   -1.3339   -1.0363   -1.5728 H   0  0  0  0  0  0  0  0  0  0  0  0
   -3.7460   -0.0909    0.8241 H   0  0  0  0  0  0  0  0  0  0  0  0
   -1.6824    2.1715   -2.1833 H   0  0  0  0  0  0  0  0  0  0  0  0
  1  2  1  0
  2  3  1  0
  3  4  1  0
  4  5  1  0
  4  6  1  0
  6  7  2  0
  6  8  1  0
  8  9  1  0
  9 10  2  0
  9 11  1  0
 11 12  1  0
 12 13  2  0
 12  4  1  0
  1 14  1  0
  1 15  1  0
  1 16  1  0
  2 17  1  0
  2 18  1  0
  3 19  1  0
  3 20  1  0
  5 21  1  0
  5 22  1  0
  8 23  1  0
 11 24  1  0
M  END
$$$$

     RDKit          3D

 24 24  0  0  0  0  0  0  0  0999 V2000
    2.6833    0.0099    0.0767 C   0  0  0  0  0  0  0  0  0  0  0  0
    1.9148   -1.2974    0.0906 C   0  0  0  0  0  0  0  0  0  0  0  0
    0.6756   -1.2228   -0.7494 C   0  0  0  0  0  0  0  0  0  0  0  0
   -0.2527   -0.1535   -0.2532 C   0  0  0  0  0  0  0  0  0  0  0  0
    0.3841    1.1547   -0.2835 N   0  0  0  0  0  0  0  0  0  0  0  0
   -1.4511   -0.0204   -1.1611 C   0  0  0  0  0  0  0  0  0  0  0  0
   -1.5797   -0.6728   -2.2094 O   0  0  0  0  0  0  0  0  0  0  0  0
   -2.4493    0.9093   -0.7496 N   0  0  0  0  0  0  0  0  0  0  0  0
   -2.6499    1.1736    0.6340 C   0  0  0  0  0  0  0  0  0  0  0  0
   -3.5145    1.9813    1.0230 O   0  0  0  0  0  0  0  0  0  0  0  0
   -1.8206    0.4758    1.5581 N   0  0  0  0  0  0  0  0  0  0  0  0
   -0.8388   -0.4438    1.0826 C   0  0  0  0  0  0  0  0  0  0  0  0
   -0.5105   -1.4433    1.7900 O   0  0  0  0  0  0  0  0  0  0  0  0
    2.5673    0.4746   -0.9274 H   0  0  0  0  0  0  0  0  0  0  0  0
    3.7654   -0.2483    0.2656 H   0  0  0  0  0  0  0  0  0  0  0  0
    2.3884    0.6876    0.9032 H   0  0  0  0  0  0  0  0  0  0  0  0
    1.7182   -1.5343    1.1436 H   0  0  0  0  0  0  0  0  0  0  0  0
    2.5927   -2.0905   -0.3473 H   0  0  0  0  0  0  0  0  0  0  0  0
    0.1460   -2.1949   -0.7277 H   0  0  0  0  0  0  0  0  0  0  0  0
    0.9332   -0.9619   -1.7959 H   0  0  0  0  0  0  0  0  0  0  0  0
    0.0663    1.7482   -1.0671 H   0  0  0  0  0  0  0  0  0  0  0  0
    0.1746    1.6585    0.5982 H   0  0  0  0  0  0  0  0  0  0  0  0
   -3.0359    1.3953   -1.4942 H   0  0  0  0  0  0  0  0  0  0  0  0
   -1.9068    0.6153    2.6002 H   0  0  0  0  0  0  0  0  0  0  0  0
  1  2  1  0
  2  3  1  0
  3  4  1  0
  4  5  1  0
  4  6  1  0
  6  7  2  0
  6  8  1  0
  8  9  1  0
  9 10  2  0
  9 11  1  0
 11 12  1  0
 12 13  2  0
 12  4  1  0
  1 14  1  0
  1 15  1  0
  1 16  1  0
  2 17  1  0
  2 18  1  0
  3 19  1  0
  3 20  1  0
  5 21  1  0
  5 22  1  0
  8 23  1  0
 11 24  1  0
M  END
$$$$

     RDKit          3D

 24 24  0  0  0  0  0  0  0  0999 V2000
    2.6537    0.3626    1.3966 C   0  0  0  0  0  0  0  0  0  0  0  0
    1.7746    0.1830    0.1930 C   0  0  0  0  0  0  0  0  0  0  0  0
    0.4430   -0.4462    0.5221 C   0  0  0  0  0  0  0  0  0  0  0  0
   -0.3265   -0.5604   -0.7905 C   0  0  0  0  0  0  0  0  0  0  0  0
    0.4597   -1.3958   -1.6792 N   0  0  0  0  0  0  0  0  0  0  0  0
   -1.6592   -1.1598   -0.5880 C   0  0  0  0  0  0  0  0  0  0  0  0
   -1.9007   -2.3395   -0.9228 O   0  0  0  0  0  0  0  0  0  0  0  0
   -2.6473   -0.3319    0.0035 N   0  0  0  0  0  0  0  0  0  0  0  0
   -2.5307    1.1040   -0.0778 C   0  0  0  0  0  0  0  0  0  0  0  0
   -3.4023    1.8439    0.4445 O   0  0  0  0  0  0  0  0  0  0  0  0
   -1.4192    1.6775   -0.7551 N   0  0  0  0  0  0  0  0  0  0  0  0
   -0.4596    0.8097   -1.3304 C   0  0  0  0  0  0  0  0  0  0  0  0
    0.2486    1.2386   -2.2853 O   0  0  0  0  0  0  0  0  0  0  0  0
    3.7193    0.2748    1.0322 H   0  0  0  0  0  0  0  0  0  0  0  0
    2.4791    1.3708    1.8211 H   0  0  0  0  0  0  0  0  0  0  0  0
    2.4799   -0.4059    2.1792 H   0  0  0  0  0  0  0  0  0  0  0  0
    2.2453   -0.4597   -0.5845 H   0  0  0  0  0  0  0  0  0  0  0  0
    1.5685    1.1863   -0.2332 H   0  0  0  0  0  0  0  0  0  0  0  0
   -0.0649    0.2326    1.2374 H   0  0  0  0  0  0  0  0  0  0  0  0
    0.5419   -1.4255    1.0068 H   0  0  0  0  0  0  0  0  0  0  0  0
    0.4824   -2.3384   -1.2708 H   0  0  0  0  0  0  0  0  0  0  0  0
    0.0930   -1.3960   -2.6456 H   0  0  0  0  0  0  0  0  0  0  0  0
   -3.4572   -0.7588    0.4959 H   0  0  0  0  0  0  0  0  0  0  0  0
   -1.3214    2.7344   -0.8215 H   0  0  0  0  0  0  0  0  0  0  0  0
  1  2  1  0
  2  3  1  0
  3  4  1  0
  4  5  1  0
  4  6  1  0
  6  7  2  0
  6  8  1  0
  8  9  1  0
  9 10  2  0
  9 11  1  0
 11 12  1  0
 12 13  2  0
 12  4  1  0
  1 14  1  0
  1 15  1  0
  1 16  1  0
  2 17  1  0
  2 18  1  0
  3 19  1  0
  3 20  1  0
  5 21  1  0
  5 22  1  0
  8 23  1  0
 11 24  1  0
M  END
$$$$

     RDKit          3D

 24 24  0  0  0  0  0  0  0  0999 V2000
    3.3861    0.0021    0.4116 C   0  0  0  0  0  0  0  0  0  0  0  0
    1.9857    0.3773   -0.0500 C   0  0  0  0  0  0  0  0  0  0  0  0
    1.0092   -0.5528    0.6267 C   0  0  0  0  0  0  0  0  0  0  0  0
   -0.3714   -0.2217    0.1984 C   0  0  0  0  0  0  0  0  0  0  0  0
   -0.4795   -0.3499   -1.2058 N   0  0  0  0  0  0  0  0  0  0  0  0
   -1.3841   -1.1734    0.7898 C   0  0  0  0  0  0  0  0  0  0  0  0
   -1.0882   -2.1276    1.5316 O   0  0  0  0  0  0  0  0  0  0  0  0
   -2.7434   -0.9397    0.4618 N   0  0  0  0  0  0  0  0  0  0  0  0
   -3.1665    0.4143    0.1940 C   0  0  0  0  0  0  0  0  0  0  0  0
   -4.3581    0.6893   -0.1030 O   0  0  0  0  0  0  0  0  0  0  0  0
   -2.2011    1.4546    0.2714 N   0  0  0  0  0  0  0  0  0  0  0  0
   -0.8407    1.1218    0.6132 C   0  0  0  0  0  0  0  0  0  0  0  0
   -0.1166    1.9347    1.2253 O   0  0  0  0  0  0  0  0  0  0  0  0
    4.0564    0.1538   -0.4743 H   0  0  0  0  0  0  0  0  0  0  0  0
    3.3736   -1.0537    0.7520 H   0  0  0  0  0  0  0  0  0  0  0  0
    3.7448    0.7033    1.2048 H   0  0  0  0  0  0  0  0  0  0  0  0
    1.8591    1.4418    0.1931 H   0  0  0  0  0  0  0  0  0  0  0  0
    1.9132    0.3050   -1.1586 H   0  0  0  0  0  0  0  0  0  0  0  0
    1.2326   -1.5803    0.2224 H   0  0  0  0  0  0  0  0  0  0  0  0
    1.1021   -0.5261    1.7253 H   0  0  0  0  0  0  0  0  0  0  0  0
   -0.5371   -1.2663   -1.6108 H   0  0  0  0  0  0  0  0  0  0  0  0
   -0.4708    0.4759   -1.7753 H   0  0  0  0  0  0  0  0  0  0  0  0
   -3.4506   -1.7154    0.4076 H   0  0  0  0  0  0  0  0  0  0  0  0
   -2.4545    2.4331    0.0904 H   0  0  0  0  0  0  0  0  0  0  0  0
  1  2  1  0
  2  3  1  0
  3  4  1  0
  4  5  1  0
  4  6  1  0
  6  7  2  0
  6  8  1  0
  8  9  1  0
  9 10  2  0
  9 11  1  0
 11 12  1  0
 12 13  2  0
 12  4  1  0
  1 14  1  0
  1 15  1  0
  1 16  1  0
  2 17  1  0
  2 18  1  0
  3 19  1  0
  3 20  1  0
  5 21  1  0
  5 22  1  0
  8 23  1  0
 11 24  1  0
M  END
$$$$

     RDKit          3D

 24 24  0  0  0  0  0  0  0  0999 V2000
    2.7403    0.2926   -1.7116 C   0  0  0  0  0  0  0  0  0  0  0  0
    1.7764   -0.4568   -0.7974 C   0  0  0  0  0  0  0  0  0  0  0  0
    0.8147    0.5887   -0.2319 C   0  0  0  0  0  0  0  0  0  0  0  0
   -0.1930   -0.0787    0.7022 C   0  0  0  0  0  0  0  0  0  0  0  0
    0.5302   -0.7135    1.7891 N   0  0  0  0  0  0  0  0  0  0  0  0
   -0.9576   -1.1182   -0.0076 C   0  0  0  0  0  0  0  0  0  0  0  0
   -0.4114   -2.2369   -0.1868 O   0  0  0  0  0  0  0  0  0  0  0  0
   -2.2773   -0.8832   -0.4844 N   0  0  0  0  0  0  0  0  0  0  0  0
   -2.9856    0.2893   -0.0599 C   0  0  0  0  0  0  0  0  0  0  0  0
   -4.1648    0.4983   -0.4866 O   0  0  0  0  0  0  0  0  0  0  0  0
   -2.3854    1.2183    0.8306 N   0  0  0  0  0  0  0  0  0  0  0  0
   -1.0656    0.9647    1.2954 C   0  0  0  0  0  0  0  0  0  0  0  0
   -0.6049    1.6461    2.2494 O   0  0  0  0  0  0  0  0  0  0  0  0
    2.2505    0.5812   -2.6696 H   0  0  0  0  0  0  0  0  0  0  0  0
    2.9693    1.2590   -1.1820 H   0  0  0  0  0  0  0  0  0  0  0  0
    3.6925   -0.2331   -1.8413 H   0  0  0  0  0  0  0  0  0  0  0  0
    1.2366   -1.1687   -1.4528 H   0  0  0  0  0  0  0  0  0  0  0  0
    2.3532   -0.9616   -0.0154 H   0  0  0  0  0  0  0  0  0  0  0  0
    1.3696    1.3567    0.3422 H   0  0  0  0  0  0  0  0  0  0  0  0
    0.3074    1.0652   -1.0896 H   0  0  0  0  0  0  0  0  0  0  0  0
    0.8232   -1.6728    1.5520 H   0  0  0  0  0  0  0  0  0  0  0  0
   -0.1603   -0.7832    2.5951 H   0  0  0  0  0  0  0  0  0  0  0  0
   -2.7689   -1.5288   -1.1388 H   0  0  0  0  0  0  0  0  0  0  0  0
   -2.8891    2.0753    1.1477 H   0  0  0  0  0  0  0  0  0  0  0  0
  1  2  1  0
  2  3  1  0
  3  4  1  0
  4  5  1  0
  4  6  1  0
  6  7  2  0
  6  8  1  0
  8  9  1  0
  9 10  2  0
  9 11  1  0
 11 12  1  0
 12 13  2  0
 12  4  1  0
  1 14  1  0
  1 15  1  0
  1 16  1  0
  2 17  1  0
  2 18  1  0
  3 19  1  0
  3 20  1  0
  5 21  1  0
  5 22  1  0
  8 23  1  0
 11 24  1  0
M  END
$$$$

     RDKit          3D

 24 24  0  0  0  0  0  0  0  0999 V2000
   -2.4037    0.6141   -0.3144 C   0  0  0  0  0  0  0  0  0  0  0  0
   -2.0317   -0.6156    0.4660 C   0  0  0  0  0  0  0  0  0  0  0  0
   -0.5982   -0.6520    0.8475 C   0  0  0  0  0  0  0  0  0  0  0  0
    0.4056   -0.6628   -0.2528 C   0  0  0  0  0  0  0  0  0  0  0  0
    0.2593   -1.8008   -1.1408 N   0  0  0  0  0  0  0  0  0  0  0  0
    0.5217    0.6096   -1.0144 C   0  0  0  0  0  0  0  0  0  0  0  0
    0.0941    0.6992   -2.1879 O   0  0  0  0  0  0  0  0  0  0  0  0
    1.1245    1.7725   -0.4399 N   0  0  0  0  0  0  0  0  0  0  0  0
    2.0759    1.5812    0.6138 C   0  0  0  0  0  0  0  0  0  0  0  0
    2.6466    2.5438    1.1661 O   0  0  0  0  0  0  0  0  0  0  0  0
    2.3871    0.2550    1.0520 N   0  0  0  0  0  0  0  0  0  0  0  0
    1.7452   -0.8445    0.4338 C   0  0  0  0  0  0  0  0  0  0  0  0
    2.2455   -1.9746    0.4321 O   0  0  0  0  0  0  0  0  0  0  0  0
   -3.3774    1.0090    0.0653 H   0  0  0  0  0  0  0  0  0  0  0  0
   -2.4681    0.3728   -1.3981 H   0  0  0  0  0  0  0  0  0  0  0  0
   -1.6288    1.3756   -0.1719 H   0  0  0  0  0  0  0  0  0  0  0  0
   -2.3678   -1.5432   -0.0626 H   0  0  0  0  0  0  0  0  0  0  0  0
   -2.6860   -0.6129    1.3912 H   0  0  0  0  0  0  0  0  0  0  0  0
   -0.3212    0.2271    1.5031 H   0  0  0  0  0  0  0  0  0  0  0  0
   -0.4480   -1.6060    1.4393 H   0  0  0  0  0  0  0  0  0  0  0  0
    1.1859   -2.0377   -1.5714 H   0  0  0  0  0  0  0  0  0  0  0  0
   -0.3717   -1.5797   -1.9504 H   0  0  0  0  0  0  0  0  0  0  0  0
    0.9243    2.7406   -0.7291 H   0  0  0  0  0  0  0  0  0  0  0  0
    3.0868    0.1295    1.8235 H   0  0  0  0  0  0  0  0  0  0  0  0
  1  2  1  0
  2  3  1  0
  3  4  1  0
  4  5  1  0
  4  6  1  0
  6  7  2  0
  6  8  1  0
  8  9  1  0
  9 10  2  0
  9 11  1  0
 11 12  1  0
 12 13  2  0
 12  4  1  0
  1 14  1  0
  1 15  1  0
  1 16  1  0
  2 17  1  0
  2 18  1  0
  3 19  1  0
  3 20  1  0
  5 21  1  0
  5 22  1  0
  8 23  1  0
 11 24  1  0
M  END
$$$$
