
     RDKit          3D

 23 23  0  0  0  0  0  0  0  0999 V2000
    3.5059    0.6384   -0.9230 C   0  0  0  0  0  0  0  0  0  0  0  0
    2.0611    0.5825   -0.6709 N   0  0  0  0  0  0  0  0  0  0  0  0
    1.5370   -0.3759    0.2139 C   0  0  0  0  0  0  0  0  0  0  0  0
    2.3923   -1.1645    0.7595 O   0  0  0  0  0  0  0  0  0  0  0  0
    0.1864   -0.5213    0.5283 N   0  0  0  0  0  0  0  0  0  0  0  0
   -0.2179   -1.5640    1.4673 C   0  0  0  0  0  0  0  0  0  0  0  0
   -0.8314    0.2994   -0.0214 C   0  0  2  0  0  0  0  0  0  0  0  0
   -1.6009    0.9963    1.0083 N   0  0  0  0  0  0  0  0  0  0  0  0
   -2.9520    1.0703    0.6001 C   0  0  0  0  0  0  0  0  0  0  0  0
   -3.8462    1.8111    1.1023 O   0  0  0  0  0  0  0  0  0  0  0  0
   -3.1147    0.1506   -0.4861 N   0  0  0  0  0  0  0  0  0  0  0  0
   -1.8768   -0.4782   -0.7386 C   0  0  0  0  0  0  0  0  0  0  0  0
   -1.6638   -1.4886   -1.4236 O   0  0  0  0  0  0  0  0  0  0  0  0
    3.6252    0.9283   -1.9764 H   0  0  0  0  0  0  0  0  0  0  0  0
    3.9693   -0.3755   -0.7982 H   0  0  0  0  0  0  0  0  0  0  0  0
    4.0153    1.3041   -0.2059 H   0  0  0  0  0  0  0  0  0  0  0  0
    1.4494    1.2463   -1.1456 H   0  0  0  0  0  0  0  0  0  0  0  0
   -0.4558   -2.4848    0.9037 H   0  0  0  0  0  0  0  0  0  0  0  0
    0.5860   -1.7796    2.1954 H   0  0  0  0  0  0  0  0  0  0  0  0
   -1.0939   -1.2326    2.0424 H   0  0  0  0  0  0  0  0  0  0  0  0
   -0.4604    1.0536   -0.7118 H   0  0  0  0  0  0  0  0  0  0  0  0
   -1.1736    1.3607    1.8853 H   0  0  0  0  0  0  0  0  0  0  0  0
   -4.0406    0.0236   -0.9640 H   0  0  0  0  0  0  0  0  0  0  0  0
  1  2  1  0
  2  3  1  0
  3  4  2  0
  3  5  1  0
  5  6  1  0
  5  7  1  0
  7  8  1  0
  8  9  1  0
  9 10  2  0
  9 11  1  0
 11 12  1  0
 12 13  2  0
 12  7  1  0
  1 14  1  0
  1 15  1  0
  1 16  1  0
  2 17  1  0
  6 18  1  0
  6 19  1  0
  6 20  1  0
  7 21  1  6
  8 22  1  0
 11 23  1  0
M  END
$$$$

     RDKit          3D

 23 23  0  0  0  0  0  0  0  0999 V2000
    3.3696    0.2251    1.5957 C   0  0  0  0  0  0  0  0  0  0  0  0
    1.9808    0.2589    1.1531 N   0  0  0  0  0  0  0  0  0  0  0  0
    1.5700   -0.3543   -0.0615 C   0  0  0  0  0  0  0  0  0  0  0  0
    2.5182   -0.9275   -0.7161 O   0  0  0  0  0  0  0  0  0  0  0  0
    0.2454   -0.3584   -0.5470 N   0  0  0  0  0  0  0  0  0  0  0  0
   -0.0064   -1.0373   -1.8184 C   0  0  0  0  0  0  0  0  0  0  0  0
   -0.8671    0.2412    0.0941 C   0  0  2  0  0  0  0  0  0  0  0  0
   -1.9498   -0.7303    0.3376 N   0  0  0  0  0  0  0  0  0  0  0  0
   -3.1613    0.0058    0.4214 C   0  0  0  0  0  0  0  0  0  0  0  0
   -4.2070   -0.3459    1.0201 O   0  0  0  0  0  0  0  0  0  0  0  0
   -2.9329    1.2248   -0.3185 N   0  0  0  0  0  0  0  0  0  0  0  0
   -1.6062    1.1834   -0.8178 C   0  0  0  0  0  0  0  0  0  0  0  0
   -1.1970    1.8204   -1.8130 O   0  0  0  0  0  0  0  0  0  0  0  0
    3.5654   -0.5423    2.3467 H   0  0  0  0  0  0  0  0  0  0  0  0
    4.0648    0.0713    0.7468 H   0  0  0  0  0  0  0  0  0  0  0  0
    3.6236    1.2384    2.0049 H   0  0  0  0  0  0  0  0  0  0  0  0
    1.2577    0.7390    1.7270 H   0  0  0  0  0  0  0  0  0  0  0  0
   -0.4446   -2.0289   -1.5478 H   0  0  0  0  0  0  0  0  0  0  0  0
    0.9284   -1.2147   -2.3631 H   0  0  0  0  0  0  0  0  0  0  0  0
   -0.7037   -0.4303   -2.4443 H   0  0  0  0  0  0  0  0  0  0  0  0
   -0.6013    0.7261    1.0333 H   0  0  0  0  0  0  0  0  0  0  0  0
   -1.8283   -1.7628    0.4284 H   0  0  0  0  0  0  0  0  0  0  0  0
   -3.6183    1.9984   -0.4618 H   0  0  0  0  0  0  0  0  0  0  0  0
  1  2  1  0
  2  3  1  0
  3  4  2  0
  3  5  1  0
  5  6  1  0
  5  7  1  0
  7  8  1  0
  8  9  1  0
  9 10  2  0
  9 11  1  0
 11 12  1  0
 12 13  2  0
 12  7  1  0
  1 14  1  0
  1 15  1  0
  1 16  1  0
  2 17  1  0
  6 18  1  0
  6 19  1  0
  6 20  1  0
  7 21  1  1
  8 22  1  0
 11 23  1  0
M  END
$$$$

     RDKit          3D

 23 23  0  0  0  0  0  0  0  0999 V2000
    3.4636    1.3504   -0.1793 C   0  0  0  0  0  0  0  0  0  0  0  0
    2.0365    0.9972   -0.0421 N   0  0  0  0  0  0  0  0  0  0  0  0
    1.5774   -0.3098   -0.2856 C   0  0  0  0  0  0  0  0  0  0  0  0
    2.4384   -1.1834   -0.6303 O   0  0  0  0  0  0  0  0  0  0  0  0
    0.2146   -0.6550   -0.1565 N   0  0  0  0  0  0  0  0  0  0  0  0
   -0.1230   -2.0678   -0.4445 C   0  0  0  0  0  0  0  0  0  0  0  0
   -0.8417    0.2353    0.2226 C   0  0  2  0  0  0  0  0  0  0  0  0
   -1.6504   -0.3229    1.3152 N   0  0  0  0  0  0  0  0  0  0  0  0
   -2.9236    0.2985    1.1959 C   0  0  0  0  0  0  0  0  0  0  0  0
   -3.7415    0.4495    2.1413 O   0  0  0  0  0  0  0  0  0  0  0  0
   -3.0889    0.7075   -0.1717 N   0  0  0  0  0  0  0  0  0  0  0  0
   -1.9002    0.3181   -0.8469 C   0  0  0  0  0  0  0  0  0  0  0  0
   -1.7874    0.0983   -2.0683 O   0  0  0  0  0  0  0  0  0  0  0  0
    3.6317    2.3889    0.1037 H   0  0  0  0  0  0  0  0  0  0  0  0
    3.7950    1.1012   -1.2058 H   0  0  0  0  0  0  0  0  0  0  0  0
    4.0044    0.6233    0.4899 H   0  0  0  0  0  0  0  0  0  0  0  0
    1.3598    1.7304    0.2400 H   0  0  0  0  0  0  0  0  0  0  0  0
   -1.0572   -2.3477    0.0634 H   0  0  0  0  0  0  0  0  0  0  0  0
   -0.1965   -2.1201   -1.5563 H   0  0  0  0  0  0  0  0  0  0  0  0
    0.6710   -2.7408   -0.0780 H   0  0  0  0  0  0  0  0  0  0  0  0
   -0.5538    1.2701    0.4271 H   0  0  0  0  0  0  0  0  0  0  0  0
   -1.3909   -1.0215    2.0409 H   0  0  0  0  0  0  0  0  0  0  0  0
   -3.9373    1.2003   -0.5746 H   0  0  0  0  0  0  0  0  0  0  0  0
  1  2  1  0
  2  3  1  0
  3  4  2  0
  3  5  1  0
  5  6  1  0
  5  7  1  0
  7  8  1  0
  8  9  1  0
  9 10  2  0
  9 11  1  0
 11 12  1  0
 12 13  2  0
 12  7  1  0
  1 14  1  0
  1 15  1  0
  1 16  1  0
  2 17  1  0
  6 18  1  0
  6 19  1  0
  6 20  1  0
  7 21  1  1
  8 22  1  0
 11 23  1  0
M  END
$$$$

     RDKit          3D

 23 23  0  0  0  0  0  0  0  0999 V2000
    3.6829   -0.5201    1.1213 C   0  0  0  0  0  0  0  0  0  0  0  0
    2.5710    0.0630    0.3729 N   0  0  0  0  0  0  0  0  0  0  0  0
    1.2537   -0.4292    0.5752 C   0  0  0  0  0  0  0  0  0  0  0  0
    1.1093   -1.3619    1.4062 O   0  0  0  0  0  0  0  0  0  0  0  0
    0.1281    0.1046   -0.1304 N   0  0  0  0  0  0  0  0  0  0  0  0
    0.2957    1.1779   -1.0864 C   0  0  0  0  0  0  0  0  0  0  0  0
   -1.1781   -0.4280    0.1111 C   0  0  2  0  0  0  0  0  0  0  0  0
   -1.8588   -0.8469   -1.0793 N   0  0  0  0  0  0  0  0  0  0  0  0
   -3.2413   -0.5845   -0.9023 C   0  0  0  0  0  0  0  0  0  0  0  0
   -4.1924   -1.0792   -1.5978 O   0  0  0  0  0  0  0  0  0  0  0  0
   -3.3920    0.3270    0.1856 N   0  0  0  0  0  0  0  0  0  0  0  0
   -2.0896    0.6076    0.6584 C   0  0  0  0  0  0  0  0  0  0  0  0
   -1.7603    1.5569    1.4039 O   0  0  0  0  0  0  0  0  0  0  0  0
    4.6084    0.0176    0.8053 H   0  0  0  0  0  0  0  0  0  0  0  0
    3.7400   -1.5934    0.9004 H   0  0  0  0  0  0  0  0  0  0  0  0
    3.4979   -0.3944    2.2255 H   0  0  0  0  0  0  0  0  0  0  0  0
    2.7111    0.8368   -0.3127 H   0  0  0  0  0  0  0  0  0  0  0  0
   -0.5708    1.1524   -1.8010 H   0  0  0  0  0  0  0  0  0  0  0  0
    1.2214    1.0425   -1.6909 H   0  0  0  0  0  0  0  0  0  0  0  0
    0.3505    2.1656   -0.5731 H   0  0  0  0  0  0  0  0  0  0  0  0
   -1.1523   -1.2469    0.8697 H   0  0  0  0  0  0  0  0  0  0  0  0
   -1.4338   -1.2788   -1.9523 H   0  0  0  0  0  0  0  0  0  0  0  0
   -4.3006    0.7113    0.5580 H   0  0  0  0  0  0  0  0  0  0  0  0
  1  2  1  0
  2  3  1  0
  3  4  2  0
  3  5  1  0
  5  6  1  0
  5  7  1  0
  7  8  1  0
  8  9  1  0
  9 10  2  0
  9 11  1  0
 11 12  1  0
 12 13  2  0
 12  7  1  0
  1 14  1  0
  1 15  1  0
  1 16  1  0
  2 17  1  0
  6 18  1  0
  6 19  1  0
  6 20  1  0
  7 21  1  1
  8 22  1  0
 11 23  1  0
M  END
$$$$

     RDKit          3D

 23 23  0  0  0  0  0  0  0  0999 V2000
   -3.8797    0.3614   -0.3949 C   0  0  0  0  0  0  0  0  0  0  0  0
   -2.5797   -0.1178    0.0807 N   0  0  0  0  0  0  0  0  0  0  0  0
   -1.3556    0.4534   -0.3199 C   0  0  0  0  0  0  0  0  0  0  0  0
   -1.3568    1.4207   -1.1230 O   0  0  0  0  0  0  0  0  0  0  0  0
   -0.0982   -0.0168    0.1457 N   0  0  0  0  0  0  0  0  0  0  0  0
   -0.0330   -1.1287    1.0725 C   0  0  0  0  0  0  0  0  0  0  0  0
    1.1489    0.5703   -0.2667 C   0  0  2  0  0  0  0  0  0  0  0  0
    1.9165   -0.4912   -0.9340 N   0  0  0  0  0  0  0  0  0  0  0  0
    3.3017   -0.2887   -0.6240 C   0  0  0  0  0  0  0  0  0  0  0  0
    4.2792   -0.8025   -1.2303 O   0  0  0  0  0  0  0  0  0  0  0  0
    3.3653    0.5907    0.4835 N   0  0  0  0  0  0  0  0  0  0  0  0
    2.0398    0.9147    0.8376 C   0  0  0  0  0  0  0  0  0  0  0  0
    1.6862    1.4187    1.9292 O   0  0  0  0  0  0  0  0  0  0  0  0
   -4.4387   -0.5536   -0.6986 H   0  0  0  0  0  0  0  0  0  0  0  0
   -4.4511    0.8601    0.3918 H   0  0  0  0  0  0  0  0  0  0  0  0
   -3.6788    1.0011   -1.2818 H   0  0  0  0  0  0  0  0  0  0  0  0
   -2.6019   -0.9217    0.7467 H   0  0  0  0  0  0  0  0  0  0  0  0
   -0.8555   -1.1085    1.8013 H   0  0  0  0  0  0  0  0  0  0  0  0
   -0.1378   -2.0551    0.4606 H   0  0  0  0  0  0  0  0  0  0  0  0
    0.9246   -1.1410    1.6323 H   0  0  0  0  0  0  0  0  0  0  0  0
    0.9513    1.4018   -0.9687 H   0  0  0  0  0  0  0  0  0  0  0  0
    1.5799   -1.2696   -1.5308 H   0  0  0  0  0  0  0  0  0  0  0  0
    4.2731    0.9022    0.9114 H   0  0  0  0  0  0  0  0  0  0  0  0
  1  2  1  0
  2  3  1  0
  3  4  2  0
  3  5  1  0
  5  6  1  0
  5  7  1  0
  7  8  1  0
  8  9  1  0
  9 10  2  0
  9 11  1  0
 11 12  1  0
 12 13  2  0
 12  7  1  0
  1 14  1  0
  1 15  1  0
  1 16  1  0
  2 17  1  0
  6 18  1  0
  6 19  1  0
  6 20  1  0
  7 21  1  6
  8 22  1  0
 11 23  1  0
M  END
$$$$

     RDKit          3D

 23 23  0  0  0  0  0  0  0  0999 V2000
    3.6578    0.3197    0.5813 C   0  0  0  0  0  0  0  0  0  0  0  0
    2.2076    0.3811    0.5686 N   0  0  0  0  0  0  0  0  0  0  0  0
    1.5234   -0.2814   -0.4803 C   0  0  0  0  0  0  0  0  0  0  0  0
    2.2336   -0.8929   -1.3507 O   0  0  0  0  0  0  0  0  0  0  0  0
    0.1200   -0.2922   -0.5985 N   0  0  0  0  0  0  0  0  0  0  0  0
   -0.4868   -1.0117   -1.7276 C   0  0  0  0  0  0  0  0  0  0  0  0
   -0.7909    0.3436    0.2939 C   0  0  2  0  0  0  0  0  0  0  0  0
   -1.7448   -0.6720    0.7619 N   0  0  0  0  0  0  0  0  0  0  0  0
   -3.0629   -0.2866    0.4835 C   0  0  0  0  0  0  0  0  0  0  0  0
   -4.1112   -0.9009    0.8657 O   0  0  0  0  0  0  0  0  0  0  0  0
   -3.0401    0.8889   -0.2865 N   0  0  0  0  0  0  0  0  0  0  0  0
   -1.6842    1.2570   -0.5013 C   0  0  0  0  0  0  0  0  0  0  0  0
   -1.2458    2.1807   -1.2229 O   0  0  0  0  0  0  0  0  0  0  0  0
    3.9620   -0.7120    0.2826 H   0  0  0  0  0  0  0  0  0  0  0  0
    4.0443    0.9833   -0.2329 H   0  0  0  0  0  0  0  0  0  0  0  0
    4.0965    0.6084    1.5348 H   0  0  0  0  0  0  0  0  0  0  0  0
    1.6688    0.9005    1.3125 H   0  0  0  0  0  0  0  0  0  0  0  0
    0.1269   -1.9552   -1.8184 H   0  0  0  0  0  0  0  0  0  0  0  0
   -1.5410   -1.2308   -1.5704 H   0  0  0  0  0  0  0  0  0  0  0  0
   -0.2961   -0.3808   -2.6441 H   0  0  0  0  0  0  0  0  0  0  0  0
   -0.3424    0.8767    1.1303 H   0  0  0  0  0  0  0  0  0  0  0  0
   -1.4286   -1.5395    1.2295 H   0  0  0  0  0  0  0  0  0  0  0  0
   -3.8659    1.4162   -0.6482 H   0  0  0  0  0  0  0  0  0  0  0  0
  1  2  1  0
  2  3  1  0
  3  4  2  0
  3  5  1  0
  5  6  1  0
  5  7  1  0
  7  8  1  0
  8  9  1  0
  9 10  2  0
  9 11  1  0
 11 12  1  0
 12 13  2  0
 12  7  1  0
  1 14  1  0
  1 15  1  0
  1 16  1  0
  2 17  1  0
  6 18  1  0
  6 19  1  0
  6 20  1  0
  7 21  1  1
  8 22  1  0
 11 23  1  0
M  END
$$$$

     RDKit          3D

 23 23  0  0  0  0  0  0  0  0999 V2000
    3.1889    0.9356    0.5610 C   0  0  0  0  0  0  0  0  0  0  0  0
    2.2576   -0.0743    0.1272 N   0  0  0  0  0  0  0  0  0  0  0  0
    0.8599    0.1922    0.1032 C   0  0  0  0  0  0  0  0  0  0  0  0
    0.4992    1.3385    0.4761 O   0  0  0  0  0  0  0  0  0  0  0  0
   -0.0700   -0.7941   -0.3221 N   0  0  0  0  0  0  0  0  0  0  0  0
    0.4238   -2.0903   -0.7364 C   0  0  0  0  0  0  0  0  0  0  0  0
   -1.4797   -0.5404   -0.3519 C   0  0  2  0  0  0  0  0  0  0  0  0
   -1.8317    0.5406   -1.2465 N   0  0  0  0  0  0  0  0  0  0  0  0
   -2.4352    1.5681   -0.4784 C   0  0  0  0  0  0  0  0  0  0  0  0
   -2.7835    2.6912   -0.9701 O   0  0  0  0  0  0  0  0  0  0  0  0
   -2.5699    1.1276    0.8752 N   0  0  0  0  0  0  0  0  0  0  0  0
   -2.0464   -0.1847    0.9513 C   0  0  0  0  0  0  0  0  0  0  0  0
   -2.0646   -0.9191    1.9636 O   0  0  0  0  0  0  0  0  0  0  0  0
    2.7930    1.9609    0.4263 H   0  0  0  0  0  0  0  0  0  0  0  0
    3.4789    0.7368    1.6326 H   0  0  0  0  0  0  0  0  0  0  0  0
    4.1053    0.8532   -0.0844 H   0  0  0  0  0  0  0  0  0  0  0  0
    2.5946   -1.0197   -0.1770 H   0  0  0  0  0  0  0  0  0  0  0  0
    1.1362   -2.4291    0.0399 H   0  0  0  0  0  0  0  0  0  0  0  0
    1.0365   -1.9538   -1.6738 H   0  0  0  0  0  0  0  0  0  0  0  0
   -0.4015   -2.7868   -0.8960 H   0  0  0  0  0  0  0  0  0  0  0  0
   -2.0293   -1.4369   -0.7136 H   0  0  0  0  0  0  0  0  0  0  0  0
   -1.6688    0.5538   -2.2636 H   0  0  0  0  0  0  0  0  0  0  0  0
   -2.9931    1.7306    1.6212 H   0  0  0  0  0  0  0  0  0  0  0  0
  1  2  1  0
  2  3  1  0
  3  4  2  0
  3  5  1  0
  5  6  1  0
  5  7  1  0
  7  8  1  0
  8  9  1  0
  9 10  2  0
  9 11  1  0
 11 12  1  0
 12 13  2  0
 12  7  1  0
  1 14  1  0
  1 15  1  0
  1 16  1  0
  2 17  1  0
  6 18  1  0
  6 19  1  0
  6 20  1  0
  7 21  1  6
  8 22  1  0
 11 23  1  0
M  END
$$$$

     RDKit          3D

 23 23  0  0  0  0  0  0  0  0999 V2000
    3.7740   -0.1641    0.8402 C   0  0  0  0  0  0  0  0  0  0  0  0
    2.4789   -0.0560    0.1680 N   0  0  0  0  0  0  0  0  0  0  0  0
    1.2482   -0.0754    0.8584 C   0  0  0  0  0  0  0  0  0  0  0  0
    1.2471   -0.1899    2.1028 O   0  0  0  0  0  0  0  0  0  0  0  0
    0.0088    0.0302    0.1920 N   0  0  0  0  0  0  0  0  0  0  0  0
    0.0123    0.1622   -1.2448 C   0  0  0  0  0  0  0  0  0  0  0  0
   -1.2731    0.0132    0.8655 C   0  0  2  0  0  0  0  0  0  0  0  0
   -2.0107   -1.1127    0.3371 N   0  0  0  0  0  0  0  0  0  0  0  0
   -2.9185   -0.6541   -0.6460 C   0  0  0  0  0  0  0  0  0  0  0  0
   -3.5768   -1.3441   -1.4924 O   0  0  0  0  0  0  0  0  0  0  0  0
   -2.9793    0.7625   -0.5310 N   0  0  0  0  0  0  0  0  0  0  0  0
   -2.1131    1.1693    0.5168 C   0  0  0  0  0  0  0  0  0  0  0  0
   -2.1027    2.3193    1.0223 O   0  0  0  0  0  0  0  0  0  0  0  0
    4.1649   -1.1859    0.5756 H   0  0  0  0  0  0  0  0  0  0  0  0
    3.6060   -0.0532    1.9252 H   0  0  0  0  0  0  0  0  0  0  0  0
    4.4378    0.5866    0.4075 H   0  0  0  0  0  0  0  0  0  0  0  0
    2.4347    0.0426   -0.8862 H   0  0  0  0  0  0  0  0  0  0  0  0
    0.4394   -0.7981   -1.6570 H   0  0  0  0  0  0  0  0  0  0  0  0
   -0.9496    0.3920   -1.6960 H   0  0  0  0  0  0  0  0  0  0  0  0
    0.7309    0.9848   -1.5146 H   0  0  0  0  0  0  0  0  0  0  0  0
   -1.1510   -0.0944    1.9683 H   0  0  0  0  0  0  0  0  0  0  0  0
   -1.9308   -2.1345    0.6007 H   0  0  0  0  0  0  0  0  0  0  0  0
   -3.5776    1.3997   -1.1348 H   0  0  0  0  0  0  0  0  0  0  0  0
  1  2  1  0
  2  3  1  0
  3  4  2  0
  3  5  1  0
  5  6  1  0
  5  7  1  0
  7  8  1  0
  8  9  1  0
  9 10  2  0
  9 11  1  0
 11 12  1  0
 12 13  2  0
 12  7  1  0
  1 14  1  0
  1 15  1  0
  1 16  1  0
  2 17  1  0
  6 18  1  0
  6 19  1  0
  6 20  1  0
  7 21  1  1
  8 22  1  0
 11 23  1  0
M  END
$$$$
