
     RDKit          3D

 23 22  0  0  0  0  0  0  0  0999 V2000
    3.7673    0.4554    0.2204 C   0  0  0  0  0  0  0  0  0  0  0  0
    2.3536    0.6065   -0.8473 S   0  0  0  0  0  4  0  0  0  0  0  0
    2.2853   -0.4808   -1.9071 O   0  0  0  0  0  0  0  0  0  0  0  0
    0.8365    0.5561    0.0490 N   0  0  0  0  0  0  0  0  0  0  0  0
    0.3895   -0.8009    0.0506 C   0  0  0  0  0  0  0  0  0  0  0  0
   -0.8728   -1.0253    0.8094 C   0  0  0  0  0  0  0  0  0  0  0  0
   -2.0811   -0.3040    0.3481 C   0  0  2  0  0  0  0  0  0  0  0  0
   -2.4310   -0.6288   -1.0301 N   0  0  0  0  0  0  0  0  0  0  0  0
   -2.0693    1.1393    0.5532 C   0  0  0  0  0  0  0  0  0  0  0  0
   -2.4365    1.9456   -0.3675 O   0  0  0  0  0  0  0  0  0  0  0  0
   -1.6663    1.7245    1.7393 O   0  0  0  0  0  0  0  0  0  0  0  0
    4.6357    1.0610   -0.1451 H   0  0  0  0  0  0  0  0  0  0  0  0
    3.4914    0.7852    1.2501 H   0  0  0  0  0  0  0  0  0  0  0  0
    4.1194   -0.5978    0.2398 H   0  0  0  0  0  0  0  0  0  0  0  0
    0.1487    1.1750   -0.3898 H   0  0  0  0  0  0  0  0  0  0  0  0
    0.3064   -1.1962   -1.0086 H   0  0  0  0  0  0  0  0  0  0  0  0
    1.1847   -1.4777    0.4924 H   0  0  0  0  0  0  0  0  0  0  0  0
   -1.0959   -2.1382    0.8640 H   0  0  0  0  0  0  0  0  0  0  0  0
   -0.7213   -0.7643    1.9034 H   0  0  0  0  0  0  0  0  0  0  0  0
   -2.9732   -0.6767    0.9677 H   0  0  0  0  0  0  0  0  0  0  0  0
   -2.1645   -1.6101   -1.2379 H   0  0  0  0  0  0  0  0  0  0  0  0
   -3.4502   -0.4815   -1.1733 H   0  0  0  0  0  0  0  0  0  0  0  0
   -1.5563    2.7334    1.8537 H   0  0  0  0  0  0  0  0  0  0  0  0
  1  2  1  0
  2  3  2  0
  2  4  1  1
  4  5  1  0
  5  6  1  0
  6  7  1  0
  7  8  1  0
  7  9  1  0
  9 10  2  0
  9 11  1  0
  1 12  1  0
  1 13  1  0
  1 14  1  0
  4 15  1  0
  5 16  1  0
  5 17  1  0
  6 18  1  0
  6 19  1  0
  7 20  1  1
  8 21  1  0
  8 22  1  0
 11 23  1  0
M  END
$$$$

     RDKit          3D

 23 22  0  0  0  0  0  0  0  0999 V2000
    3.4657    0.0501    0.0375 C   0  0  0  0  0  0  0  0  0  0  0  0
    2.2065    0.7796    1.0870 S   0  0  0  0  0  4  0  0  0  0  0  0
    2.0787    2.2686    0.9021 O   0  0  0  0  0  0  0  0  0  0  0  0
    0.6750   -0.0502    0.9293 N   0  0  0  0  0  0  0  0  0  0  0  0
    0.4685   -0.3975   -0.4749 C   0  0  0  0  0  0  0  0  0  0  0  0
   -0.8268   -1.1139   -0.6942 C   0  0  0  0  0  0  0  0  0  0  0  0
   -2.0362   -0.3181   -0.2877 C   0  0  2  0  0  0  0  0  0  0  0  0
   -2.1287    0.9238   -1.0346 N   0  0  0  0  0  0  0  0  0  0  0  0
   -2.1071   -0.0269    1.1397 C   0  0  0  0  0  0  0  0  0  0  0  0
   -2.0470   -0.9494    1.9751 O   0  0  0  0  0  0  0  0  0  0  0  0
   -2.2411    1.2626    1.5965 O   0  0  0  0  0  0  0  0  0  0  0  0
    4.4423    0.1774    0.5679 H   0  0  0  0  0  0  0  0  0  0  0  0
    3.2258   -1.0227   -0.0947 H   0  0  0  0  0  0  0  0  0  0  0  0
    3.4641    0.6167   -0.9223 H   0  0  0  0  0  0  0  0  0  0  0  0
    0.7792   -0.9668    1.4424 H   0  0  0  0  0  0  0  0  0  0  0  0
    0.6111    0.4803   -1.1181 H   0  0  0  0  0  0  0  0  0  0  0  0
    1.2847   -1.1110   -0.7276 H   0  0  0  0  0  0  0  0  0  0  0  0
   -0.7946   -2.0873   -0.1708 H   0  0  0  0  0  0  0  0  0  0  0  0
   -0.9160   -1.3307   -1.7778 H   0  0  0  0  0  0  0  0  0  0  0  0
   -2.9249   -0.9263   -0.6381 H   0  0  0  0  0  0  0  0  0  0  0  0
   -1.7509    0.8361   -2.0016 H   0  0  0  0  0  0  0  0  0  0  0  0
   -3.0532    1.3554   -0.9735 H   0  0  0  0  0  0  0  0  0  0  0  0
   -1.8750    1.5503    2.5102 H   0  0  0  0  0  0  0  0  0  0  0  0
  1  2  1  0
  2  3  2  0
  2  4  1  6
  4  5  1  0
  5  6  1  0
  6  7  1  0
  7  8  1  0
  7  9  1  0
  9 10  2  0
  9 11  1  0
  1 12  1  0
  1 13  1  0
  1 14  1  0
  4 15  1  0
  5 16  1  0
  5 17  1  0
  6 18  1  0
  6 19  1  0
  7 20  1  6
  8 21  1  0
  8 22  1  0
 11 23  1  0
M  END
$$$$

     RDKit          3D

 23 22  0  0  0  0  0  0  0  0999 V2000
    4.0140    0.5137   -1.2236 C   0  0  0  0  0  0  0  0  0  0  0  0
    2.8291    0.7263    0.1073 S   0  0  0  0  0  4  0  0  0  0  0  0
    3.5032    0.6078    1.4706 O   0  0  0  0  0  0  0  0  0  0  0  0
    1.4712   -0.2450   -0.0821 N   0  0  0  0  0  0  0  0  0  0  0  0
    0.2230    0.2654    0.4025 C   0  0  0  0  0  0  0  0  0  0  0  0
   -0.8249   -0.7782    0.1184 C   0  0  0  0  0  0  0  0  0  0  0  0
   -2.2066   -0.4286    0.5628 C   0  0  2  0  0  0  0  0  0  0  0  0
   -3.0424   -1.5831    0.1880 N   0  0  0  0  0  0  0  0  0  0  0  0
   -2.7029    0.7194   -0.2263 C   0  0  0  0  0  0  0  0  0  0  0  0
   -3.6181    0.5440   -1.0544 O   0  0  0  0  0  0  0  0  0  0  0  0
   -2.1937    2.0052   -0.0893 O   0  0  0  0  0  0  0  0  0  0  0  0
    3.6414   -0.2942   -1.8822 H   0  0  0  0  0  0  0  0  0  0  0  0
    4.9852    0.1602   -0.7954 H   0  0  0  0  0  0  0  0  0  0  0  0
    4.1059    1.4468   -1.7901 H   0  0  0  0  0  0  0  0  0  0  0  0
    1.4206   -0.9063   -0.8501 H   0  0  0  0  0  0  0  0  0  0  0  0
   -0.0403    1.1861   -0.1345 H   0  0  0  0  0  0  0  0  0  0  0  0
    0.3480    0.4373    1.5058 H   0  0  0  0  0  0  0  0  0  0  0  0
   -0.7985   -0.9571   -0.9824 H   0  0  0  0  0  0  0  0  0  0  0  0
   -0.4845   -1.7215    0.5994 H   0  0  0  0  0  0  0  0  0  0  0  0
   -2.2871   -0.2237    1.6427 H   0  0  0  0  0  0  0  0  0  0  0  0
   -2.7965   -2.3463    0.8576 H   0  0  0  0  0  0  0  0  0  0  0  0
   -2.7002   -1.8968   -0.7475 H   0  0  0  0  0  0  0  0  0  0  0  0
   -2.8460    2.7687   -0.2080 H   0  0  0  0  0  0  0  0  0  0  0  0
  1  2  1  0
  2  3  2  0
  2  4  1  6
  4  5  1  0
  5  6  1  0
  6  7  1  0
  7  8  1  0
  7  9  1  0
  9 10  2  0
  9 11  1  0
  1 12  1  0
  1 13  1  0
  1 14  1  0
  4 15  1  0
  5 16  1  0
  5 17  1  0
  6 18  1  0
  6 19  1  0
  7 20  1  1
  8 21  1  0
  8 22  1  0
 11 23  1  0
M  END
$$$$

     RDKit          3D

 23 22  0  0  0  0  0  0  0  0999 V2000
    4.1427    0.3949    0.0555 C   0  0  0  0  0  0  0  0  0  0  0  0
    2.6865   -0.0759   -0.9261 S   0  0  0  0  0  4  0  0  0  0  0  0
    3.0355   -1.3401   -1.7072 O   0  0  0  0  0  0  0  0  0  0  0  0
    1.3971   -0.3493    0.1799 N   0  0  0  0  0  0  0  0  0  0  0  0
    0.0813   -0.1199   -0.4044 C   0  0  0  0  0  0  0  0  0  0  0  0
   -0.9065   -0.4042    0.6951 C   0  0  0  0  0  0  0  0  0  0  0  0
   -2.3344   -0.2177    0.2711 C   0  0  2  0  0  0  0  0  0  0  0  0
   -2.6314   -1.1026   -0.8143 N   0  0  0  0  0  0  0  0  0  0  0  0
   -2.6545    1.1803   -0.0789 C   0  0  0  0  0  0  0  0  0  0  0  0
   -3.1218    1.4069   -1.2226 O   0  0  0  0  0  0  0  0  0  0  0  0
   -2.4509    2.2205    0.8163 O   0  0  0  0  0  0  0  0  0  0  0  0
    4.9997    0.6309   -0.6003 H   0  0  0  0  0  0  0  0  0  0  0  0
    4.3506   -0.4560    0.7336 H   0  0  0  0  0  0  0  0  0  0  0  0
    3.8156    1.2699    0.6711 H   0  0  0  0  0  0  0  0  0  0  0  0
    1.4807   -1.3359    0.5393 H   0  0  0  0  0  0  0  0  0  0  0  0
   -0.0374   -0.7563   -1.2842 H   0  0  0  0  0  0  0  0  0  0  0  0
    0.0602    0.9447   -0.7067 H   0  0  0  0  0  0  0  0  0  0  0  0
   -0.7752   -1.4516    1.0070 H   0  0  0  0  0  0  0  0  0  0  0  0
   -0.6703    0.2967    1.5285 H   0  0  0  0  0  0  0  0  0  0  0  0
   -2.9581   -0.4573    1.1828 H   0  0  0  0  0  0  0  0  0  0  0  0
   -1.8266   -1.7116   -1.0568 H   0  0  0  0  0  0  0  0  0  0  0  0
   -3.4695   -1.7113   -0.6172 H   0  0  0  0  0  0  0  0  0  0  0  0
   -2.2133    3.1448    0.4489 H   0  0  0  0  0  0  0  0  0  0  0  0
  1  2  1  0
  2  3  2  0
  2  4  1  1
  4  5  1  0
  5  6  1  0
  6  7  1  0
  7  8  1  0
  7  9  1  0
  9 10  2  0
  9 11  1  0
  1 12  1  0
  1 13  1  0
  1 14  1  0
  4 15  1  0
  5 16  1  0
  5 17  1  0
  6 18  1  0
  6 19  1  0
  7 20  1  1
  8 21  1  0
  8 22  1  0
 11 23  1  0
M  END
$$$$

     RDKit          3D

 23 22  0  0  0  0  0  0  0  0999 V2000
    3.1568    0.4447    0.8208 C   0  0  0  0  0  0  0  0  0  0  0  0
    2.2887   -1.1281    1.0330 S   0  0  0  0  0  4  0  0  0  0  0  0
    3.1950   -2.2130    0.4387 O   0  0  0  0  0  0  0  0  0  0  0  0
    0.7944   -1.0478    0.1159 N   0  0  0  0  0  0  0  0  0  0  0  0
    0.7485    0.1477   -0.6968 C   0  0  0  0  0  0  0  0  0  0  0  0
   -0.4717    0.2814   -1.5169 C   0  0  0  0  0  0  0  0  0  0  0  0
   -1.7763    0.3406   -0.8254 C   0  0  2  0  0  0  0  0  0  0  0  0
   -1.9273    1.4365    0.1060 N   0  0  0  0  0  0  0  0  0  0  0  0
   -2.1944   -0.9072   -0.1581 C   0  0  0  0  0  0  0  0  0  0  0  0
   -2.1097   -1.9841   -0.7864 O   0  0  0  0  0  0  0  0  0  0  0  0
   -2.6859   -0.9639    1.1479 O   0  0  0  0  0  0  0  0  0  0  0  0
    4.1405    0.4354    1.3112 H   0  0  0  0  0  0  0  0  0  0  0  0
    2.5402    1.2201    1.3004 H   0  0  0  0  0  0  0  0  0  0  0  0
    3.2570    0.6938   -0.2451 H   0  0  0  0  0  0  0  0  0  0  0  0
    0.0268   -1.0739    0.8247 H   0  0  0  0  0  0  0  0  0  0  0  0
    1.6402    0.0718   -1.3836 H   0  0  0  0  0  0  0  0  0  0  0  0
    0.9616    1.0108   -0.0360 H   0  0  0  0  0  0  0  0  0  0  0  0
   -0.5167   -0.6181   -2.2030 H   0  0  0  0  0  0  0  0  0  0  0  0
   -0.3687    1.1371   -2.2437 H   0  0  0  0  0  0  0  0  0  0  0  0
   -2.5659    0.5375   -1.6250 H   0  0  0  0  0  0  0  0  0  0  0  0
   -2.9535    1.4458    0.3802 H   0  0  0  0  0  0  0  0  0  0  0  0
   -1.7684    2.3686   -0.3514 H   0  0  0  0  0  0  0  0  0  0  0  0
   -3.4110   -1.6356    1.4166 H   0  0  0  0  0  0  0  0  0  0  0  0
  1  2  1  0
  2  3  2  0
  2  4  1  1
  4  5  1  0
  5  6  1  0
  6  7  1  0
  7  8  1  0
  7  9  1  0
  9 10  2  0
  9 11  1  0
  1 12  1  0
  1 13  1  0
  1 14  1  0
  4 15  1  0
  5 16  1  0
  5 17  1  0
  6 18  1  0
  6 19  1  0
  7 20  1  6
  8 21  1  0
  8 22  1  0
 11 23  1  0
M  END
$$$$

     RDKit          3D

 23 22  0  0  0  0  0  0  0  0999 V2000
    3.6595   -0.7670   -1.3815 C   0  0  0  0  0  0  0  0  0  0  0  0
    2.7657   -0.4187    0.1279 S   0  0  0  0  0  4  0  0  0  0  0  0
    3.6175    0.1834    1.1981 O   0  0  0  0  0  0  0  0  0  0  0  0
    1.2901    0.4545   -0.1574 N   0  0  0  0  0  0  0  0  0  0  0  0
    0.4007    0.1831    0.9807 C   0  0  0  0  0  0  0  0  0  0  0  0
   -0.9105    0.8942    0.8328 C   0  0  0  0  0  0  0  0  0  0  0  0
   -1.6833    0.5159   -0.3895 C   0  0  2  0  0  0  0  0  0  0  0  0
   -2.9191    1.2789   -0.3979 N   0  0  0  0  0  0  0  0  0  0  0  0
   -2.0599   -0.9165   -0.3708 C   0  0  0  0  0  0  0  0  0  0  0  0
   -1.2110   -1.8590   -0.3647 O   0  0  0  0  0  0  0  0  0  0  0  0
   -3.4005   -1.3438   -0.3584 O   0  0  0  0  0  0  0  0  0  0  0  0
    3.4087   -1.7820   -1.7112 H   0  0  0  0  0  0  0  0  0  0  0  0
    3.5228    0.0045   -2.1494 H   0  0  0  0  0  0  0  0  0  0  0  0
    4.7550   -0.7866   -1.1071 H   0  0  0  0  0  0  0  0  0  0  0  0
    0.8537    0.1686   -1.0421 H   0  0  0  0  0  0  0  0  0  0  0  0
    0.3340   -0.8985    1.0968 H   0  0  0  0  0  0  0  0  0  0  0  0
    0.8624    0.5707    1.9267 H   0  0  0  0  0  0  0  0  0  0  0  0
   -1.5253    0.6390    1.7154 H   0  0  0  0  0  0  0  0  0  0  0  0
   -0.7095    1.9789    0.8418 H   0  0  0  0  0  0  0  0  0  0  0  0
   -1.1516    0.7752   -1.3338 H   0  0  0  0  0  0  0  0  0  0  0  0
   -2.7712    2.2853   -0.6065 H   0  0  0  0  0  0  0  0  0  0  0  0
   -3.4927    1.1175    0.4597 H   0  0  0  0  0  0  0  0  0  0  0  0
   -3.6354   -2.2777   -0.6361 H   0  0  0  0  0  0  0  0  0  0  0  0
  1  2  1  0
  2  3  2  0
  2  4  1  6
  4  5  1  0
  5  6  1  0
  6  7  1  0
  7  8  1  0
  7  9  1  0
  9 10  2  0
  9 11  1  0
  1 12  1  0
  1 13  1  0
  1 14  1  0
  4 15  1  0
  5 16  1  0
  5 17  1  0
  6 18  1  0
  6 19  1  0
  7 20  1  6
  8 21  1  0
  8 22  1  0
 11 23  1  0
M  END
$$$$

     RDKit          3D

 23 22  0  0  0  0  0  0  0  0999 V2000
    4.1568    0.2771   -0.6288 C   0  0  0  0  0  0  0  0  0  0  0  0
    2.7456   -0.3058   -1.5363 S   0  0  0  0  0  4  0  0  0  0  0  0
    2.5480   -1.7791   -1.2679 O   0  0  0  0  0  0  0  0  0  0  0  0
    1.2978    0.5672   -1.2299 N   0  0  0  0  0  0  0  0  0  0  0  0
    0.3537   -0.2926   -0.5297 C   0  0  0  0  0  0  0  0  0  0  0  0
   -0.9209    0.4862   -0.2625 C   0  0  0  0  0  0  0  0  0  0  0  0
   -1.9393   -0.3740    0.4693 C   0  0  2  0  0  0  0  0  0  0  0  0
   -2.2734   -1.5391   -0.3270 N   0  0  0  0  0  0  0  0  0  0  0  0
   -3.1879    0.3954    0.6996 C   0  0  0  0  0  0  0  0  0  0  0  0
   -4.2878    0.0240    0.2465 O   0  0  0  0  0  0  0  0  0  0  0  0
   -3.1628    1.5820    1.4467 O   0  0  0  0  0  0  0  0  0  0  0  0
    4.2023   -0.1916    0.3763 H   0  0  0  0  0  0  0  0  0  0  0  0
    4.2389    1.3628   -0.5660 H   0  0  0  0  0  0  0  0  0  0  0  0
    5.0783   -0.0837   -1.1702 H   0  0  0  0  0  0  0  0  0  0  0  0
    1.4042    1.4839   -0.7838 H   0  0  0  0  0  0  0  0  0  0  0  0
    0.8024   -0.6619    0.4130 H   0  0  0  0  0  0  0  0  0  0  0  0
    0.0707   -1.1662   -1.1505 H   0  0  0  0  0  0  0  0  0  0  0  0
   -0.7050    1.3736    0.3617 H   0  0  0  0  0  0  0  0  0  0  0  0
   -1.3577    0.8438   -1.2128 H   0  0  0  0  0  0  0  0  0  0  0  0
   -1.5281   -0.7142    1.4337 H   0  0  0  0  0  0  0  0  0  0  0  0
   -1.5751   -2.2974   -0.1089 H   0  0  0  0  0  0  0  0  0  0  0  0
   -2.1344   -1.3015   -1.3406 H   0  0  0  0  0  0  0  0  0  0  0  0
   -3.8261    2.3111    1.1747 H   0  0  0  0  0  0  0  0  0  0  0  0
  1  2  1  0
  2  3  2  0
  2  4  1  1
  4  5  1  0
  5  6  1  0
  6  7  1  0
  7  8  1  0
  7  9  1  0
  9 10  2  0
  9 11  1  0
  1 12  1  0
  1 13  1  0
  1 14  1  0
  4 15  1  0
  5 16  1  0
  5 17  1  0
  6 18  1  0
  6 19  1  0
  7 20  1  1
  8 21  1  0
  8 22  1  0
 11 23  1  0
M  END
$$$$

     RDKit          3D

 23 22  0  0  0  0  0  0  0  0999 V2000
    4.2938    0.5357   -0.2307 C   0  0  0  0  0  0  0  0  0  0  0  0
    2.9298   -0.2539    0.6772 S   0  0  0  0  0  4  0  0  0  0  0  0
    3.0645    0.0532    2.1640 O   0  0  0  0  0  0  0  0  0  0  0  0
    1.4528    0.3895    0.0412 N   0  0  0  0  0  0  0  0  0  0  0  0
    0.2917   -0.3886    0.4151 C   0  0  0  0  0  0  0  0  0  0  0  0
   -0.9223    0.2603   -0.1895 C   0  0  0  0  0  0  0  0  0  0  0  0
   -2.1734   -0.5075    0.1654 C   0  0  2  0  0  0  0  0  0  0  0  0
   -2.0539   -1.8456   -0.3398 N   0  0  0  0  0  0  0  0  0  0  0  0
   -3.3167    0.2146   -0.4571 C   0  0  0  0  0  0  0  0  0  0  0  0
   -4.0180   -0.3702   -1.3032 O   0  0  0  0  0  0  0  0  0  0  0  0
   -3.5864    1.5075   -0.0969 O   0  0  0  0  0  0  0  0  0  0  0  0
    3.9605    0.8138   -1.2515 H   0  0  0  0  0  0  0  0  0  0  0  0
    4.5759    1.4783    0.2818 H   0  0  0  0  0  0  0  0  0  0  0  0
    5.1733   -0.1162   -0.2542 H   0  0  0  0  0  0  0  0  0  0  0  0
    1.3389    1.4017    0.1462 H   0  0  0  0  0  0  0  0  0  0  0  0
    0.1728   -0.5066    1.4998 H   0  0  0  0  0  0  0  0  0  0  0  0
    0.4173   -1.3900   -0.0363 H   0  0  0  0  0  0  0  0  0  0  0  0
   -0.8211    0.2772   -1.3030 H   0  0  0  0  0  0  0  0  0  0  0  0
   -1.0116    1.3286    0.1110 H   0  0  0  0  0  0  0  0  0  0  0  0
   -2.2662   -0.4688    1.2719 H   0  0  0  0  0  0  0  0  0  0  0  0
   -2.0950   -2.5655    0.3943 H   0  0  0  0  0  0  0  0  0  0  0  0
   -1.2764   -1.9841   -1.0056 H   0  0  0  0  0  0  0  0  0  0  0  0
   -4.1302    2.1365   -0.7002 H   0  0  0  0  0  0  0  0  0  0  0  0
  1  2  1  0
  2  3  2  0
  2  4  1  6
  4  5  1  0
  5  6  1  0
  6  7  1  0
  7  8  1  0
  7  9  1  0
  9 10  2  0
  9 11  1  0
  1 12  1  0
  1 13  1  0
  1 14  1  0
  4 15  1  0
  5 16  1  0
  5 17  1  0
  6 18  1  0
  6 19  1  0
  7 20  1  1
  8 21  1  0
  8 22  1  0
 11 23  1  0
M  END
$$$$
