
     RDKit          3D

 26 25  0  0  0  0  0  0  0  0999 V2000
    1.6744    1.6360   -0.3665 N   0  0  0  0  0  0  0  0  0  0  0  0
    2.2149    0.4758    0.2866 C   0  0  1  0  0  0  0  0  0  0  0  0
    1.1033   -0.5089    0.4549 C   0  0  0  0  0  0  0  0  0  0  0  0
   -0.1616   -0.0642    0.6206 C   0  0  0  0  0  0  0  0  0  0  0  0
   -1.3014   -0.9710    0.7915 C   0  0  0  0  0  0  0  0  0  0  0  0
   -2.3741   -0.8618   -0.2475 C   0  0  1  0  0  0  0  0  0  0  0  0
   -3.4224   -1.8304    0.0700 N   0  0  0  0  0  0  0  0  0  0  0  0
   -2.9904    0.4839   -0.1866 C   0  0  0  0  0  0  0  0  0  0  0  0
   -4.1860    0.6665    0.1392 O   0  0  0  0  0  0  0  0  0  0  0  0
   -2.2202    1.5873   -0.5018 O   0  0  0  0  0  0  0  0  0  0  0  0
    3.3932   -0.1142   -0.4173 C   0  0  0  0  0  0  0  0  0  0  0  0
    4.3982    0.8199   -0.4904 O   0  0  0  0  0  0  0  0  0  0  0  0
    2.1379    1.8653   -1.2691 H   0  0  0  0  0  0  0  0  0  0  0  0
    1.5690    2.4599    0.2614 H   0  0  0  0  0  0  0  0  0  0  0  0
    2.5424    0.7435    1.3309 H   0  0  0  0  0  0  0  0  0  0  0  0
    1.2320   -1.5721    0.4549 H   0  0  0  0  0  0  0  0  0  0  0  0
   -0.2912    1.0101    0.6245 H   0  0  0  0  0  0  0  0  0  0  0  0
   -1.7215   -0.7734    1.8155 H   0  0  0  0  0  0  0  0  0  0  0  0
   -0.9833   -2.0517    0.8437 H   0  0  0  0  0  0  0  0  0  0  0  0
   -2.0321   -1.0589   -1.2626 H   0  0  0  0  0  0  0  0  0  0  0  0
   -4.0328   -1.9810   -0.7507 H   0  0  0  0  0  0  0  0  0  0  0  0
   -3.0279   -2.7102    0.4639 H   0  0  0  0  0  0  0  0  0  0  0  0
   -2.5586    2.5421   -0.4096 H   0  0  0  0  0  0  0  0  0  0  0  0
    3.7531   -0.9739    0.1851 H   0  0  0  0  0  0  0  0  0  0  0  0
    3.1111   -0.4410   -1.4387 H   0  0  0  0  0  0  0  0  0  0  0  0
    4.1739    1.6225    0.0335 H   0  0  0  0  0  0  0  0  0  0  0  0
  1  2  1  0
  2  3  1  0
  3  4  2  0
  4  5  1  0
  5  6  1  0
  6  7  1  0
  6  8  1  0
  8  9  2  0
  8 10  1  0
  2 11  1  0
 11 12  1  0
  1 13  1  0
  1 14  1  0
  2 15  1  1
  3 16  1  0
  4 17  1  0
  5 18  1  0
  5 19  1  0
  6 20  1  6
  7 21  1  0
  7 22  1  0
 10 23  1  0
 11 24  1  0
 11 25  1  0
 12 26  1  0
M  END
$$$$

     RDKit          3D

 26 25  0  0  0  0  0  0  0  0999 V2000
    3.3137   -0.8090   -0.7264 N   0  0  0  0  0  0  0  0  0  0  0  0
    2.4204    0.1523   -0.1062 C   0  0  1  0  0  0  0  0  0  0  0  0
    1.0459   -0.3756   -0.2276 C   0  0  0  0  0  0  0  0  0  0  0  0
   -0.0412    0.3936   -0.1302 C   0  0  0  0  0  0  0  0  0  0  0  0
   -1.4244   -0.1689   -0.2574 C   0  0  0  0  0  0  0  0  0  0  0  0
   -2.2291    0.0738    0.9991 C   0  0  1  0  0  0  0  0  0  0  0  0
   -2.3362    1.4766    1.2502 N   0  0  0  0  0  0  0  0  0  0  0  0
   -3.5630   -0.5625    0.7824 C   0  0  0  0  0  0  0  0  0  0  0  0
   -4.6236    0.1129    0.8281 O   0  0  0  0  0  0  0  0  0  0  0  0
   -3.6868   -1.9196    0.5228 O   0  0  0  0  0  0  0  0  0  0  0  0
    2.8310    0.3518    1.3381 C   0  0  0  0  0  0  0  0  0  0  0  0
    4.1347    0.8274    1.3975 O   0  0  0  0  0  0  0  0  0  0  0  0
    3.4839   -1.6094   -0.0771 H   0  0  0  0  0  0  0  0  0  0  0  0
    2.8469   -1.1872   -1.5896 H   0  0  0  0  0  0  0  0  0  0  0  0
    2.5739    1.1128   -0.6345 H   0  0  0  0  0  0  0  0  0  0  0  0
    0.8416   -1.4415   -0.4065 H   0  0  0  0  0  0  0  0  0  0  0  0
    0.0892    1.4376    0.0433 H   0  0  0  0  0  0  0  0  0  0  0  0
   -1.8921    0.3224   -1.1251 H   0  0  0  0  0  0  0  0  0  0  0  0
   -1.4161   -1.2469   -0.4413 H   0  0  0  0  0  0  0  0  0  0  0  0
   -1.7478   -0.4107    1.8565 H   0  0  0  0  0  0  0  0  0  0  0  0
   -3.2485    1.8975    1.0287 H   0  0  0  0  0  0  0  0  0  0  0  0
   -1.9962    1.7831    2.1796 H   0  0  0  0  0  0  0  0  0  0  0  0
   -4.5459   -2.2958    0.1376 H   0  0  0  0  0  0  0  0  0  0  0  0
    2.1449    1.0292    1.8694 H   0  0  0  0  0  0  0  0  0  0  0  0
    2.8161   -0.6260    1.8801 H   0  0  0  0  0  0  0  0  0  0  0  0
    4.2086    1.6822    0.8848 H   0  0  0  0  0  0  0  0  0  0  0  0
  1  2  1  0
  2  3  1  0
  3  4  2  0
  4  5  1  0
  5  6  1  0
  6  7  1  0
  6  8  1  0
  8  9  2  0
  8 10  1  0
  2 11  1  0
 11 12  1  0
  1 13  1  0
  1 14  1  0
  2 15  1  6
  3 16  1  0
  4 17  1  0
  5 18  1  0
  5 19  1  0
  6 20  1  1
  7 21  1  0
  7 22  1  0
 10 23  1  0
 11 24  1  0
 11 25  1  0
 12 26  1  0
M  END
$$$$

     RDKit          3D

 26 25  0  0  0  0  0  0  0  0999 V2000
   -3.4041   -0.2438    1.1679 N   0  0  0  0  0  0  0  0  0  0  0  0
   -2.3439    0.3230    0.3922 C   0  0  1  0  0  0  0  0  0  0  0  0
   -1.0879   -0.4254    0.5999 C   0  0  0  0  0  0  0  0  0  0  0  0
    0.0345   -0.1492   -0.0456 C   0  0  0  0  0  0  0  0  0  0  0  0
    1.2724   -0.9202    0.1883 C   0  0  0  0  0  0  0  0  0  0  0  0
    2.4063   -0.0416    0.6918 C   0  0  1  0  0  0  0  0  0  0  0  0
    3.5728   -0.9188    0.8852 N   0  0  0  0  0  0  0  0  0  0  0  0
    2.7968    0.9848   -0.2887 C   0  0  0  0  0  0  0  0  0  0  0  0
    1.9994    1.8959   -0.6638 O   0  0  0  0  0  0  0  0  0  0  0  0
    4.0664    1.0299   -0.8741 O   0  0  0  0  0  0  0  0  0  0  0  0
   -2.6947    0.3648   -1.0924 C   0  0  0  0  0  0  0  0  0  0  0  0
   -3.8236    1.1254   -1.3061 O   0  0  0  0  0  0  0  0  0  0  0  0
   -3.0662   -0.8825    1.9366 H   0  0  0  0  0  0  0  0  0  0  0  0
   -4.0516   -0.8199    0.5823 H   0  0  0  0  0  0  0  0  0  0  0  0
   -2.1976    1.3720    0.7286 H   0  0  0  0  0  0  0  0  0  0  0  0
   -1.0458   -1.2545    1.3139 H   0  0  0  0  0  0  0  0  0  0  0  0
    0.0156    0.6673   -0.7572 H   0  0  0  0  0  0  0  0  0  0  0  0
    1.1069   -1.7415    0.8918 H   0  0  0  0  0  0  0  0  0  0  0  0
    1.6220   -1.3594   -0.7712 H   0  0  0  0  0  0  0  0  0  0  0  0
    2.1441    0.4138    1.6698 H   0  0  0  0  0  0  0  0  0  0  0  0
    3.3925   -1.6126    1.6249 H   0  0  0  0  0  0  0  0  0  0  0  0
    3.7003   -1.3976   -0.0502 H   0  0  0  0  0  0  0  0  0  0  0  0
    4.2751    1.6154   -1.6726 H   0  0  0  0  0  0  0  0  0  0  0  0
   -2.8868   -0.6702   -1.4297 H   0  0  0  0  0  0  0  0  0  0  0  0
   -1.8548    0.7912   -1.6620 H   0  0  0  0  0  0  0  0  0  0  0  0
   -3.9482    1.8537   -0.6351 H   0  0  0  0  0  0  0  0  0  0  0  0
  1  2  1  0
  2  3  1  0
  3  4  2  0
  4  5  1  0
  5  6  1  0
  6  7  1  0
  6  8  1  0
  8  9  2  0
  8 10  1  0
  2 11  1  0
 11 12  1  0
  1 13  1  0
  1 14  1  0
  2 15  1  1
  3 16  1  0
  4 17  1  0
  5 18  1  0
  5 19  1  0
  6 20  1  1
  7 21  1  0
  7 22  1  0
 10 23  1  0
 11 24  1  0
 11 25  1  0
 12 26  1  0
M  END
$$$$

     RDKit          3D

 26 25  0  0  0  0  0  0  0  0999 V2000
    3.6048    0.9000   -0.0878 N   0  0  0  0  0  0  0  0  0  0  0  0
    2.5007    0.0708   -0.4604 C   0  0  1  0  0  0  0  0  0  0  0  0
    1.3359    0.2795    0.4558 C   0  0  0  0  0  0  0  0  0  0  0  0
    0.2894   -0.5361    0.3847 C   0  0  0  0  0  0  0  0  0  0  0  0
   -0.8786   -0.3430    1.2890 C   0  0  0  0  0  0  0  0  0  0  0  0
   -2.0832   -0.0997    0.3865 C   0  0  1  0  0  0  0  0  0  0  0  0
   -2.2405   -1.2519   -0.4479 N   0  0  0  0  0  0  0  0  0  0  0  0
   -3.2790    0.2190    1.1830 C   0  0  0  0  0  0  0  0  0  0  0  0
   -4.2941   -0.4840    1.0935 O   0  0  0  0  0  0  0  0  0  0  0  0
   -3.2383    1.3157    2.0267 O   0  0  0  0  0  0  0  0  0  0  0  0
    2.1175    0.3341   -1.9003 C   0  0  0  0  0  0  0  0  0  0  0  0
    1.0470   -0.4516   -2.3052 O   0  0  0  0  0  0  0  0  0  0  0  0
    3.4932    1.3800    0.8323 H   0  0  0  0  0  0  0  0  0  0  0  0
    3.8852    1.5988   -0.8025 H   0  0  0  0  0  0  0  0  0  0  0  0
    2.7856   -1.0096   -0.3918 H   0  0  0  0  0  0  0  0  0  0  0  0
    1.3209    1.0971    1.1941 H   0  0  0  0  0  0  0  0  0  0  0  0
    0.2268   -1.3633   -0.3136 H   0  0  0  0  0  0  0  0  0  0  0  0
   -1.0791   -1.3329    1.7868 H   0  0  0  0  0  0  0  0  0  0  0  0
   -0.7316    0.4610    2.0200 H   0  0  0  0  0  0  0  0  0  0  0  0
   -1.8350    0.7609   -0.2675 H   0  0  0  0  0  0  0  0  0  0  0  0
   -2.4852   -1.0585   -1.4272 H   0  0  0  0  0  0  0  0  0  0  0  0
   -2.7565   -2.0124    0.0074 H   0  0  0  0  0  0  0  0  0  0  0  0
   -3.8650    1.3975    2.8240 H   0  0  0  0  0  0  0  0  0  0  0  0
    1.8626    1.4057   -2.0124 H   0  0  0  0  0  0  0  0  0  0  0  0
    2.9736    0.0952   -2.5361 H   0  0  0  0  0  0  0  0  0  0  0  0
    1.3230   -1.3721   -2.5308 H   0  0  0  0  0  0  0  0  0  0  0  0
  1  2  1  0
  2  3  1  0
  3  4  2  0
  4  5  1  0
  5  6  1  0
  6  7  1  0
  6  8  1  0
  8  9  2  0
  8 10  1  0
  2 11  1  0
 11 12  1  0
  1 13  1  0
  1 14  1  0
  2 15  1  6
  3 16  1  0
  4 17  1  0
  5 18  1  0
  5 19  1  0
  6 20  1  6
  7 21  1  0
  7 22  1  0
 10 23  1  0
 11 24  1  0
 11 25  1  0
 12 26  1  0
M  END
$$$$

     RDKit          3D

 26 25  0  0  0  0  0  0  0  0999 V2000
    2.0450   -1.8446    0.3937 N   0  0  0  0  0  0  0  0  0  0  0  0
    2.3210   -0.5593   -0.1556 C   0  0  1  0  0  0  0  0  0  0  0  0
    1.1357    0.2063   -0.5654 C   0  0  0  0  0  0  0  0  0  0  0  0
   -0.0903   -0.2908   -0.6806 C   0  0  0  0  0  0  0  0  0  0  0  0
   -1.2114    0.5721   -1.1015 C   0  0  0  0  0  0  0  0  0  0  0  0
   -2.3153    0.6521   -0.0671 C   0  0  1  0  0  0  0  0  0  0  0  0
   -3.3516    1.5278   -0.6011 N   0  0  0  0  0  0  0  0  0  0  0  0
   -2.8696   -0.6595    0.2911 C   0  0  0  0  0  0  0  0  0  0  0  0
   -4.1069   -0.8623    0.0914 O   0  0  0  0  0  0  0  0  0  0  0  0
   -2.1441   -1.6954    0.8317 O   0  0  0  0  0  0  0  0  0  0  0  0
    3.1630    0.3081    0.7546 C   0  0  0  0  0  0  0  0  0  0  0  0
    3.3974    1.5415    0.1680 O   0  0  0  0  0  0  0  0  0  0  0  0
    2.9422   -2.3331    0.5603 H   0  0  0  0  0  0  0  0  0  0  0  0
    1.4712   -1.8515    1.2399 H   0  0  0  0  0  0  0  0  0  0  0  0
    2.9452   -0.7214   -1.0802 H   0  0  0  0  0  0  0  0  0  0  0  0
    1.2619    1.2583   -0.7932 H   0  0  0  0  0  0  0  0  0  0  0  0
   -0.2378   -1.3408   -0.4585 H   0  0  0  0  0  0  0  0  0  0  0  0
   -1.6166    0.2157   -2.0907 H   0  0  0  0  0  0  0  0  0  0  0  0
   -0.8238    1.5888   -1.3008 H   0  0  0  0  0  0  0  0  0  0  0  0
   -1.8896    1.1268    0.8273 H   0  0  0  0  0  0  0  0  0  0  0  0
   -3.9987    1.8657    0.1210 H   0  0  0  0  0  0  0  0  0  0  0  0
   -3.8217    1.1139   -1.4279 H   0  0  0  0  0  0  0  0  0  0  0  0
   -2.5498   -2.3517    1.5159 H   0  0  0  0  0  0  0  0  0  0  0  0
    2.6777    0.4373    1.7439 H   0  0  0  0  0  0  0  0  0  0  0  0
    4.1735   -0.1489    0.9326 H   0  0  0  0  0  0  0  0  0  0  0  0
    3.4933    2.2449    0.8513 H   0  0  0  0  0  0  0  0  0  0  0  0
  1  2  1  0
  2  3  1  0
  3  4  2  0
  4  5  1  0
  5  6  1  0
  6  7  1  0
  6  8  1  0
  8  9  2  0
  8 10  1  0
  2 11  1  0
 11 12  1  0
  1 13  1  0
  1 14  1  0
  2 15  1  6
  3 16  1  0
  4 17  1  0
  5 18  1  0
  5 19  1  0
  6 20  1  1
  7 21  1  0
  7 22  1  0
 10 23  1  0
 11 24  1  0
 11 25  1  0
 12 26  1  0
M  END
$$$$

     RDKit          3D

 26 25  0  0  0  0  0  0  0  0999 V2000
   -3.2863   -0.1699   -1.3876 N   0  0  0  0  0  0  0  0  0  0  0  0
   -2.2166   -0.6022   -0.5081 C   0  0  1  0  0  0  0  0  0  0  0  0
   -0.9960    0.1909   -0.7282 C   0  0  0  0  0  0  0  0  0  0  0  0
    0.0470   -0.0290    0.0808 C   0  0  0  0  0  0  0  0  0  0  0  0
    1.2728    0.7538   -0.1250 C   0  0  0  0  0  0  0  0  0  0  0  0
    2.4535   -0.1111   -0.4401 C   0  0  1  0  0  0  0  0  0  0  0  0
    3.6121    0.7593   -0.6317 N   0  0  0  0  0  0  0  0  0  0  0  0
    2.7131   -1.1062    0.6201 C   0  0  0  0  0  0  0  0  0  0  0  0
    1.8940   -2.0075    0.9092 O   0  0  0  0  0  0  0  0  0  0  0  0
    3.8931   -1.1067    1.3716 O   0  0  0  0  0  0  0  0  0  0  0  0
   -2.6866   -0.5057    0.9283 C   0  0  0  0  0  0  0  0  0  0  0  0
   -3.0303    0.7950    1.2393 O   0  0  0  0  0  0  0  0  0  0  0  0
   -4.2030   -0.1509   -0.8720 H   0  0  0  0  0  0  0  0  0  0  0  0
   -3.3288   -0.7397   -2.2591 H   0  0  0  0  0  0  0  0  0  0  0  0
   -1.9790   -1.6564   -0.7578 H   0  0  0  0  0  0  0  0  0  0  0  0
   -0.9709    0.9230   -1.5278 H   0  0  0  0  0  0  0  0  0  0  0  0
   -0.0176   -0.7614    0.8705 H   0  0  0  0  0  0  0  0  0  0  0  0
    1.4402    1.3612    0.8116 H   0  0  0  0  0  0  0  0  0  0  0  0
    1.1172    1.5427   -0.9106 H   0  0  0  0  0  0  0  0  0  0  0  0
    2.2574   -0.6269   -1.3883 H   0  0  0  0  0  0  0  0  0  0  0  0
    4.1668    0.4380   -1.4552 H   0  0  0  0  0  0  0  0  0  0  0  0
    3.3155    1.7568   -0.7414 H   0  0  0  0  0  0  0  0  0  0  0  0
    3.8632   -1.2181    2.3968 H   0  0  0  0  0  0  0  0  0  0  0  0
   -3.5722   -1.1544    1.0785 H   0  0  0  0  0  0  0  0  0  0  0  0
   -1.9062   -0.8271    1.6397 H   0  0  0  0  0  0  0  0  0  0  0  0
   -3.8524    0.8061    1.7865 H   0  0  0  0  0  0  0  0  0  0  0  0
  1  2  1  0
  2  3  1  0
  3  4  2  0
  4  5  1  0
  5  6  1  0
  6  7  1  0
  6  8  1  0
  8  9  2  0
  8 10  1  0
  2 11  1  0
 11 12  1  0
  1 13  1  0
  1 14  1  0
  2 15  1  6
  3 16  1  0
  4 17  1  0
  5 18  1  0
  5 19  1  0
  6 20  1  6
  7 21  1  0
  7 22  1  0
 10 23  1  0
 11 24  1  0
 11 25  1  0
 12 26  1  0
M  END
$$$$

     RDKit          3D

 26 25  0  0  0  0  0  0  0  0999 V2000
    1.4273   -1.8278   -2.7520 N   0  0  0  0  0  0  0  0  0  0  0  0
    1.5063   -0.9644   -1.6037 C   0  0  1  0  0  0  0  0  0  0  0  0
    0.3297   -1.1533   -0.7049 C   0  0  0  0  0  0  0  0  0  0  0  0
   -0.0447   -0.2023    0.1623 C   0  0  0  0  0  0  0  0  0  0  0  0
   -1.2028   -0.3602    1.0631 C   0  0  0  0  0  0  0  0  0  0  0  0
   -2.2780    0.6965    0.8475 C   0  0  1  0  0  0  0  0  0  0  0  0
   -3.3386    0.3878    1.8126 N   0  0  0  0  0  0  0  0  0  0  0  0
   -1.7478    2.0497    1.1469 C   0  0  0  0  0  0  0  0  0  0  0  0
   -2.2027    2.7155    2.1169 O   0  0  0  0  0  0  0  0  0  0  0  0
   -0.7460    2.5989    0.3638 O   0  0  0  0  0  0  0  0  0  0  0  0
    2.7883   -1.2226   -0.8092 C   0  0  0  0  0  0  0  0  0  0  0  0
    2.7737   -0.3374    0.2848 O   0  0  0  0  0  0  0  0  0  0  0  0
    1.4445   -1.2369   -3.6145 H   0  0  0  0  0  0  0  0  0  0  0  0
    2.2759   -2.4403   -2.7900 H   0  0  0  0  0  0  0  0  0  0  0  0
    1.5526    0.1202   -1.8987 H   0  0  0  0  0  0  0  0  0  0  0  0
   -0.2777   -2.0607   -0.7063 H   0  0  0  0  0  0  0  0  0  0  0  0
    0.5538    0.6839    0.1616 H   0  0  0  0  0  0  0  0  0  0  0  0
   -1.6130   -1.3786    0.9644 H   0  0  0  0  0  0  0  0  0  0  0  0
   -0.8683   -0.2625    2.1188 H   0  0  0  0  0  0  0  0  0  0  0  0
   -2.7078    0.6114   -0.1607 H   0  0  0  0  0  0  0  0  0  0  0  0
   -3.9107    1.2446    1.9781 H   0  0  0  0  0  0  0  0  0  0  0  0
   -2.9209    0.0487    2.7113 H   0  0  0  0  0  0  0  0  0  0  0  0
   -0.6909    3.5944    0.2445 H   0  0  0  0  0  0  0  0  0  0  0  0
    2.8692   -2.2726   -0.4960 H   0  0  0  0  0  0  0  0  0  0  0  0
    3.6568   -0.9257   -1.4328 H   0  0  0  0  0  0  0  0  0  0  0  0
    3.3717   -0.7122    0.9924 H   0  0  0  0  0  0  0  0  0  0  0  0
  1  2  1  0
  2  3  1  0
  3  4  2  0
  4  5  1  0
  5  6  1  0
  6  7  1  0
  6  8  1  0
  8  9  2  0
  8 10  1  0
  2 11  1  0
 11 12  1  0
  1 13  1  0
  1 14  1  0
  2 15  1  6
  3 16  1  0
  4 17  1  0
  5 18  1  0
  5 19  1  0
  6 20  1  6
  7 21  1  0
  7 22  1  0
 10 23  1  0
 11 24  1  0
 11 25  1  0
 12 26  1  0
M  END
$$$$

     RDKit          3D

 26 25  0  0  0  0  0  0  0  0999 V2000
    2.4660   -1.6428    0.8209 N   0  0  0  0  0  0  0  0  0  0  0  0
    2.2733   -0.7019   -0.2417 C   0  0  1  0  0  0  0  0  0  0  0  0
    0.8587   -0.6602   -0.6130 C   0  0  0  0  0  0  0  0  0  0  0  0
    0.0678    0.3960   -0.5472 C   0  0  0  0  0  0  0  0  0  0  0  0
   -1.3681    0.3772   -0.9403 C   0  0  0  0  0  0  0  0  0  0  0  0
   -2.2824    0.7475    0.2054 C   0  0  1  0  0  0  0  0  0  0  0  0
   -3.6409    0.6932   -0.2997 N   0  0  0  0  0  0  0  0  0  0  0  0
   -2.1724   -0.2072    1.3273 C   0  0  0  0  0  0  0  0  0  0  0  0
   -1.0697   -0.3422    1.9391 O   0  0  0  0  0  0  0  0  0  0  0  0
   -3.2395   -0.9640    1.7355 O   0  0  0  0  0  0  0  0  0  0  0  0
    2.8655    0.6125    0.1396 C   0  0  0  0  0  0  0  0  0  0  0  0
    2.3180    1.1702    1.2759 O   0  0  0  0  0  0  0  0  0  0  0  0
    3.0626   -1.3017    1.5861 H   0  0  0  0  0  0  0  0  0  0  0  0
    2.6837   -2.5999    0.5048 H   0  0  0  0  0  0  0  0  0  0  0  0
    2.8442   -1.0808   -1.1244 H   0  0  0  0  0  0  0  0  0  0  0  0
    0.4152   -1.5814   -0.9767 H   0  0  0  0  0  0  0  0  0  0  0  0
    0.5004    1.3195   -0.1859 H   0  0  0  0  0  0  0  0  0  0  0  0
   -1.5204    1.1123   -1.7550 H   0  0  0  0  0  0  0  0  0  0  0  0
   -1.6874   -0.6234   -1.2954 H   0  0  0  0  0  0  0  0  0  0  0  0
   -2.0990    1.7674    0.5904 H   0  0  0  0  0  0  0  0  0  0  0  0
   -3.7384    1.4415   -1.0365 H   0  0  0  0  0  0  0  0  0  0  0  0
   -3.7560   -0.2358   -0.7995 H   0  0  0  0  0  0  0  0  0  0  0  0
   -3.2427   -1.6014    2.5204 H   0  0  0  0  0  0  0  0  0  0  0  0
    2.8531    1.3404   -0.7242 H   0  0  0  0  0  0  0  0  0  0  0  0
    3.9466    0.4454    0.3449 H   0  0  0  0  0  0  0  0  0  0  0  0
    2.6620    2.1197    1.3149 H   0  0  0  0  0  0  0  0  0  0  0  0
  1  2  1  0
  2  3  1  0
  3  4  2  0
  4  5  1  0
  5  6  1  0
  6  7  1  0
  6  8  1  0
  8  9  2  0
  8 10  1  0
  2 11  1  0
 11 12  1  0
  1 13  1  0
  1 14  1  0
  2 15  1  6
  3 16  1  0
  4 17  1  0
  5 18  1  0
  5 19  1  0
  6 20  1  1
  7 21  1  0
  7 22  1  0
 10 23  1  0
 11 24  1  0
 11 25  1  0
 12 26  1  0
M  END
$$$$
