
     RDKit          3D

 24 24  0  0  0  0  0  0  0  0999 V2000
    4.3214   -0.2200    0.1483 N   0  0  0  0  0  0  0  0  0  0  0  0
    3.0407    0.3292   -0.1933 C   0  0  0  0  0  0  0  0  0  0  0  0
    2.9322    1.4734   -0.7060 O   0  0  0  0  0  0  0  0  0  0  0  0
    1.8348   -0.3868    0.0286 N   0  0  0  0  0  0  0  0  0  0  0  0
    0.5551    0.1877   -0.3241 C   0  0  2  0  0  0  0  0  0  0  0  0
   -0.3392    0.3799    0.8649 C   0  0  0  0  0  0  0  0  0  0  0  0
   -1.7266    0.7380    0.3341 C   0  0  2  0  0  0  0  0  0  0  0  0
   -2.6107    1.0329    1.3443 O   0  0  0  0  0  0  0  0  0  0  0  0
   -2.2232   -0.4689   -0.4188 C   0  0  1  0  0  0  0  0  0  0  0  0
   -3.1219   -0.0213   -1.3849 O   0  0  0  0  0  0  0  0  0  0  0  0
   -1.1066   -1.2947   -0.9934 C   0  0  0  0  0  0  0  0  0  0  0  0
    0.0133   -0.5800   -1.3256 O   0  0  0  0  0  0  0  0  0  0  0  0
    4.8460   -0.8086   -0.5347 H   0  0  0  0  0  0  0  0  0  0  0  0
    4.7610   -0.0530    1.0702 H   0  0  0  0  0  0  0  0  0  0  0  0
    1.8552   -1.3427    0.4515 H   0  0  0  0  0  0  0  0  0  0  0  0
    0.7430    1.1941   -0.7530 H   0  0  0  0  0  0  0  0  0  0  0  0
    0.0151    1.3031    1.3899 H   0  0  0  0  0  0  0  0  0  0  0  0
   -0.3835   -0.4661    1.5493 H   0  0  0  0  0  0  0  0  0  0  0  0
   -1.5704    1.5541   -0.3911 H   0  0  0  0  0  0  0  0  0  0  0  0
   -2.8901    1.9886    1.2491 H   0  0  0  0  0  0  0  0  0  0  0  0
   -2.8031   -1.1317    0.2725 H   0  0  0  0  0  0  0  0  0  0  0  0
   -3.8151    0.4935   -0.8980 H   0  0  0  0  0  0  0  0  0  0  0  0
   -1.4951   -1.7610   -1.9242 H   0  0  0  0  0  0  0  0  0  0  0  0
   -0.8322   -2.1399   -0.3224 H   0  0  0  0  0  0  0  0  0  0  0  0
  1  2  1  0
  2  3  2  0
  2  4  1  0
  4  5  1  0
  5  6  1  0
  6  7  1  0
  7  8  1  0
  7  9  1  0
  9 10  1  0
  9 11  1  0
 11 12  1  0
 12  5  1  0
  1 13  1  0
  1 14  1  0
  4 15  1  0
  5 16  1  6
  6 17  1  0
  6 18  1  0
  7 19  1  6
  8 20  1  0
  9 21  1  1
 10 22  1  0
 11 23  1  0
 11 24  1  0
M  END
$$$$

     RDKit          3D

 24 24  0  0  0  0  0  0  0  0999 V2000
    4.1392    0.2532    0.5540 N   0  0  0  0  0  0  0  0  0  0  0  0
    2.9433   -0.4834    0.4975 C   0  0  0  0  0  0  0  0  0  0  0  0
    2.9045   -1.7462    0.6045 O   0  0  0  0  0  0  0  0  0  0  0  0
    1.7097    0.2038    0.3121 N   0  0  0  0  0  0  0  0  0  0  0  0
    0.4369   -0.4878    0.2438 C   0  0  2  0  0  0  0  0  0  0  0  0
   -0.1819   -0.1538   -1.0976 C   0  0  0  0  0  0  0  0  0  0  0  0
   -1.2667    0.8817   -0.8262 C   0  0  2  0  0  0  0  0  0  0  0  0
   -0.7126    1.8093    0.0613 O   0  0  0  0  0  0  0  0  0  0  0  0
   -2.3592    0.1536   -0.0640 C   0  0  1  0  0  0  0  0  0  0  0  0
   -2.9519   -0.7360   -0.9738 O   0  0  0  0  0  0  0  0  0  0  0  0
   -1.6648   -0.6408    1.0355 C   0  0  0  0  0  0  0  0  0  0  0  0
   -0.3989   -0.1347    1.3029 O   0  0  0  0  0  0  0  0  0  0  0  0
    5.0115   -0.1289    0.1466 H   0  0  0  0  0  0  0  0  0  0  0  0
    4.1674    1.1864    1.0022 H   0  0  0  0  0  0  0  0  0  0  0  0
    1.6707    1.2474    0.2165 H   0  0  0  0  0  0  0  0  0  0  0  0
    0.6484   -1.5695    0.3602 H   0  0  0  0  0  0  0  0  0  0  0  0
   -0.7131   -1.0788   -1.4308 H   0  0  0  0  0  0  0  0  0  0  0  0
    0.5532    0.2109   -1.8334 H   0  0  0  0  0  0  0  0  0  0  0  0
   -1.6370    1.3520   -1.7531 H   0  0  0  0  0  0  0  0  0  0  0  0
   -1.4365    2.1296    0.6644 H   0  0  0  0  0  0  0  0  0  0  0  0
   -3.1250    0.8443    0.3422 H   0  0  0  0  0  0  0  0  0  0  0  0
   -3.9252   -0.7817   -0.8482 H   0  0  0  0  0  0  0  0  0  0  0  0
   -2.2660   -0.6392    1.9579 H   0  0  0  0  0  0  0  0  0  0  0  0
   -1.5459   -1.6914    0.7039 H   0  0  0  0  0  0  0  0  0  0  0  0
  1  2  1  0
  2  3  2  0
  2  4  1  0
  4  5  1  0
  5  6  1  0
  6  7  1  0
  7  8  1  0
  7  9  1  0
  9 10  1  0
  9 11  1  0
 11 12  1  0
 12  5  1  0
  1 13  1  0
  1 14  1  0
  4 15  1  0
  5 16  1  6
  6 17  1  0
  6 18  1  0
  7 19  1  6
  8 20  1  0
  9 21  1  1
 10 22  1  0
 11 23  1  0
 11 24  1  0
M  END
$$$$

     RDKit          3D

 24 24  0  0  0  0  0  0  0  0999 V2000
    4.3388   -0.1209    0.3493 N   0  0  0  0  0  0  0  0  0  0  0  0
    3.0452    0.0168   -0.2244 C   0  0  0  0  0  0  0  0  0  0  0  0
    2.9847    0.3858   -1.4192 O   0  0  0  0  0  0  0  0  0  0  0  0
    1.8479   -0.2441    0.4963 N   0  0  0  0  0  0  0  0  0  0  0  0
    0.5263   -0.1028   -0.0914 C   0  0  2  0  0  0  0  0  0  0  0  0
   -0.3143    0.9108    0.6923 C   0  0  0  0  0  0  0  0  0  0  0  0
   -1.6130    0.9961   -0.0979 C   0  0  2  0  0  0  0  0  0  0  0  0
   -2.3901    2.0575    0.2548 O   0  0  0  0  0  0  0  0  0  0  0  0
   -2.2828   -0.3403   -0.0097 C   0  0  1  0  0  0  0  0  0  0  0  0
   -3.5061   -0.3581   -0.6379 O   0  0  0  0  0  0  0  0  0  0  0  0
   -1.3283   -1.3660   -0.6349 C   0  0  0  0  0  0  0  0  0  0  0  0
   -0.1236   -1.3284    0.0487 O   0  0  0  0  0  0  0  0  0  0  0  0
    5.1319   -0.4343   -0.2476 H   0  0  0  0  0  0  0  0  0  0  0  0
    4.5079    0.0819    1.3394 H   0  0  0  0  0  0  0  0  0  0  0  0
    1.9563   -0.5482    1.4872 H   0  0  0  0  0  0  0  0  0  0  0  0
    0.5867    0.2269   -1.1482 H   0  0  0  0  0  0  0  0  0  0  0  0
   -0.5404    0.4090    1.6624 H   0  0  0  0  0  0  0  0  0  0  0  0
    0.1859    1.8754    0.7950 H   0  0  0  0  0  0  0  0  0  0  0  0
   -1.3065    1.1375   -1.1668 H   0  0  0  0  0  0  0  0  0  0  0  0
   -2.8242    2.0001    1.1270 H   0  0  0  0  0  0  0  0  0  0  0  0
   -2.3932   -0.6567    1.0516 H   0  0  0  0  0  0  0  0  0  0  0  0
   -3.4995   -1.0817   -1.3228 H   0  0  0  0  0  0  0  0  0  0  0  0
   -1.2264   -1.1433   -1.7176 H   0  0  0  0  0  0  0  0  0  0  0  0
   -1.7632   -2.3731   -0.4659 H   0  0  0  0  0  0  0  0  0  0  0  0
  1  2  1  0
  2  3  2  0
  2  4  1  0
  4  5  1  0
  5  6  1  0
  6  7  1  0
  7  8  1  0
  7  9  1  0
  9 10  1  0
  9 11  1  0
 11 12  1  0
 12  5  1  0
  1 13  1  0
  1 14  1  0
  4 15  1  0
  5 16  1  6
  6 17  1  0
  6 18  1  0
  7 19  1  6
  8 20  1  0
  9 21  1  1
 10 22  1  0
 11 23  1  0
 11 24  1  0
M  END
$$$$

     RDKit          3D

 24 24  0  0  0  0  0  0  0  0999 V2000
   -4.2499    0.2887    0.5991 N   0  0  0  0  0  0  0  0  0  0  0  0
   -2.9979    0.0646   -0.0338 C   0  0  0  0  0  0  0  0  0  0  0  0
   -2.9746   -0.4037   -1.1910 O   0  0  0  0  0  0  0  0  0  0  0  0
   -1.7744    0.3616    0.6213 N   0  0  0  0  0  0  0  0  0  0  0  0
   -0.5036    0.1160   -0.0661 C   0  0  2  0  0  0  0  0  0  0  0  0
    0.3085   -0.8314    0.7866 C   0  0  0  0  0  0  0  0  0  0  0  0
    1.6711   -1.0041    0.1420 C   0  0  2  0  0  0  0  0  0  0  0  0
    2.4528   -1.8420    0.9325 O   0  0  0  0  0  0  0  0  0  0  0  0
    2.2602    0.3790    0.0206 C   0  0  1  0  0  0  0  0  0  0  0  0
    3.5597    0.3760   -0.4333 O   0  0  0  0  0  0  0  0  0  0  0  0
    1.3309    1.1823   -0.8695 C   0  0  0  0  0  0  0  0  0  0  0  0
    0.1426    1.3560   -0.1251 O   0  0  0  0  0  0  0  0  0  0  0  0
   -4.6818   -0.4293    1.2249 H   0  0  0  0  0  0  0  0  0  0  0  0
   -4.7520    1.1927    0.4356 H   0  0  0  0  0  0  0  0  0  0  0  0
   -1.7694    0.7489    1.5769 H   0  0  0  0  0  0  0  0  0  0  0  0
   -0.6808   -0.2958   -1.0706 H   0  0  0  0  0  0  0  0  0  0  0  0
    0.4792   -0.3676    1.7694 H   0  0  0  0  0  0  0  0  0  0  0  0
   -0.2136   -1.7983    0.8816 H   0  0  0  0  0  0  0  0  0  0  0  0
    1.5474   -1.3989   -0.8904 H   0  0  0  0  0  0  0  0  0  0  0  0
    1.8611   -2.5102    1.3369 H   0  0  0  0  0  0  0  0  0  0  0  0
    2.2205    0.8560    1.0231 H   0  0  0  0  0  0  0  0  0  0  0  0
    3.9138    1.2906   -0.3320 H   0  0  0  0  0  0  0  0  0  0  0  0
    1.7601    2.1370   -1.1951 H   0  0  0  0  0  0  0  0  0  0  0  0
    1.0900    0.5319   -1.7348 H   0  0  0  0  0  0  0  0  0  0  0  0
  1  2  1  0
  2  3  2  0
  2  4  1  0
  4  5  1  0
  5  6  1  0
  6  7  1  0
  7  8  1  0
  7  9  1  0
  9 10  1  0
  9 11  1  0
 11 12  1  0
 12  5  1  0
  1 13  1  0
  1 14  1  0
  4 15  1  0
  5 16  1  6
  6 17  1  0
  6 18  1  0
  7 19  1  6
  8 20  1  0
  9 21  1  1
 10 22  1  0
 11 23  1  0
 11 24  1  0
M  END
$$$$

     RDKit          3D

 24 24  0  0  0  0  0  0  0  0999 V2000
    4.1688    0.5005   -0.0257 N   0  0  0  0  0  0  0  0  0  0  0  0
    3.0140   -0.1445    0.5242 C   0  0  0  0  0  0  0  0  0  0  0  0
    3.1200   -1.0626    1.3908 O   0  0  0  0  0  0  0  0  0  0  0  0
    1.6928    0.2039    0.1340 N   0  0  0  0  0  0  0  0  0  0  0  0
    0.5442   -0.4654    0.7071 C   0  0  2  0  0  0  0  0  0  0  0  0
   -0.3081   -1.1193   -0.3742 C   0  0  0  0  0  0  0  0  0  0  0  0
   -1.7583   -0.9629    0.0995 C   0  0  2  0  0  0  0  0  0  0  0  0
   -2.5928   -1.8008   -0.5988 O   0  0  0  0  0  0  0  0  0  0  0  0
   -2.1095    0.4956   -0.1194 C   0  0  1  0  0  0  0  0  0  0  0  0
   -3.3113    0.8451    0.4695 O   0  0  0  0  0  0  0  0  0  0  0  0
   -0.9386    1.2981    0.4643 C   0  0  0  0  0  0  0  0  0  0  0  0
   -0.2074    0.5231    1.3633 O   0  0  0  0  0  0  0  0  0  0  0  0
    4.8469   -0.0706   -0.5376 H   0  0  0  0  0  0  0  0  0  0  0  0
    4.3491    1.5224    0.0716 H   0  0  0  0  0  0  0  0  0  0  0  0
    1.5899    0.9576   -0.5782 H   0  0  0  0  0  0  0  0  0  0  0  0
    0.8079   -1.2284    1.4357 H   0  0  0  0  0  0  0  0  0  0  0  0
   -0.1178   -2.1869   -0.4825 H   0  0  0  0  0  0  0  0  0  0  0  0
   -0.1925   -0.5513   -1.3036 H   0  0  0  0  0  0  0  0  0  0  0  0
   -1.7720   -1.1461    1.2093 H   0  0  0  0  0  0  0  0  0  0  0  0
   -3.4707   -1.8107   -0.1200 H   0  0  0  0  0  0  0  0  0  0  0  0
   -2.1632    0.6380   -1.2222 H   0  0  0  0  0  0  0  0  0  0  0  0
   -3.4631    1.7934    0.2963 H   0  0  0  0  0  0  0  0  0  0  0  0
   -0.3335    1.6549   -0.3708 H   0  0  0  0  0  0  0  0  0  0  0  0
   -1.3947    2.1168    1.0356 H   0  0  0  0  0  0  0  0  0  0  0  0
  1  2  1  0
  2  3  2  0
  2  4  1  0
  4  5  1  0
  5  6  1  0
  6  7  1  0
  7  8  1  0
  7  9  1  0
  9 10  1  0
  9 11  1  0
 11 12  1  0
 12  5  1  0
  1 13  1  0
  1 14  1  0
  4 15  1  0
  5 16  1  1
  6 17  1  0
  6 18  1  0
  7 19  1  1
  8 20  1  0
  9 21  1  6
 10 22  1  0
 11 23  1  0
 11 24  1  0
M  END
$$$$

     RDKit          3D

 24 24  0  0  0  0  0  0  0  0999 V2000
   -4.1388   -1.0743   -0.0277 N   0  0  0  0  0  0  0  0  0  0  0  0
   -2.7230   -1.2195    0.0209 C   0  0  0  0  0  0  0  0  0  0  0  0
   -2.1684   -2.3334    0.2096 O   0  0  0  0  0  0  0  0  0  0  0  0
   -1.8460   -0.0958   -0.1438 N   0  0  0  0  0  0  0  0  0  0  0  0
   -0.4054   -0.2189   -0.0982 C   0  0  2  0  0  0  0  0  0  0  0  0
    0.1593    0.5736    1.0530 C   0  0  0  0  0  0  0  0  0  0  0  0
    1.5267    1.0998    0.6835 C   0  0  2  0  0  0  0  0  0  0  0  0
    1.4213    2.2827   -0.0508 O   0  0  0  0  0  0  0  0  0  0  0  0
    2.2410    0.0942   -0.2108 C   0  0  1  0  0  0  0  0  0  0  0  0
    2.4099   -1.1091    0.4647 O   0  0  0  0  0  0  0  0  0  0  0  0
    1.4542   -0.0361   -1.4685 C   0  0  0  0  0  0  0  0  0  0  0  0
    0.0987    0.2024   -1.3231 O   0  0  0  0  0  0  0  0  0  0  0  0
   -4.7154   -1.6058    0.6376 H   0  0  0  0  0  0  0  0  0  0  0  0
   -4.5459   -0.4304   -0.7403 H   0  0  0  0  0  0  0  0  0  0  0  0
   -2.3349    0.8234   -0.3001 H   0  0  0  0  0  0  0  0  0  0  0  0
   -0.1832   -1.2932    0.0785 H   0  0  0  0  0  0  0  0  0  0  0  0
   -0.5304    1.4361    1.2375 H   0  0  0  0  0  0  0  0  0  0  0  0
    0.2067   -0.0702    1.9316 H   0  0  0  0  0  0  0  0  0  0  0  0
    2.1296    1.2216    1.6056 H   0  0  0  0  0  0  0  0  0  0  0  0
    1.9376    2.9844    0.4200 H   0  0  0  0  0  0  0  0  0  0  0  0
    3.2311    0.5164   -0.4427 H   0  0  0  0  0  0  0  0  0  0  0  0
    3.3391   -1.3821    0.5712 H   0  0  0  0  0  0  0  0  0  0  0  0
    1.8374    0.6937   -2.2054 H   0  0  0  0  0  0  0  0  0  0  0  0
    1.5988   -1.0594   -1.9024 H   0  0  0  0  0  0  0  0  0  0  0  0
  1  2  1  0
  2  3  2  0
  2  4  1  0
  4  5  1  0
  5  6  1  0
  6  7  1  0
  7  8  1  0
  7  9  1  0
  9 10  1  0
  9 11  1  0
 11 12  1  0
 12  5  1  0
  1 13  1  0
  1 14  1  0
  4 15  1  0
  5 16  1  1
  6 17  1  0
  6 18  1  0
  7 19  1  1
  8 20  1  0
  9 21  1  6
 10 22  1  0
 11 23  1  0
 11 24  1  0
M  END
$$$$

     RDKit          3D

 24 24  0  0  0  0  0  0  0  0999 V2000
   -3.8670    0.2943    0.4053 N   0  0  0  0  0  0  0  0  0  0  0  0
   -2.7985   -0.3244   -0.3014 C   0  0  0  0  0  0  0  0  0  0  0  0
   -3.0109   -1.1766   -1.2184 O   0  0  0  0  0  0  0  0  0  0  0  0
   -1.4256   -0.0072   -0.0034 N   0  0  0  0  0  0  0  0  0  0  0  0
   -0.3200   -0.6144   -0.6988 C   0  0  2  0  0  0  0  0  0  0  0  0
    0.6025   -1.3874    0.1894 C   0  0  0  0  0  0  0  0  0  0  0  0
    1.5356   -0.5371    0.9941 C   0  0  2  0  0  0  0  0  0  0  0  0
    0.8034    0.0357    2.0317 O   0  0  0  0  0  0  0  0  0  0  0  0
    2.1372    0.5169    0.1069 C   0  0  1  0  0  0  0  0  0  0  0  0
    2.9592   -0.0991   -0.8347 O   0  0  0  0  0  0  0  0  0  0  0  0
    1.0432    1.2303   -0.6388 C   0  0  0  0  0  0  0  0  0  0  0  0
    0.3505    0.3604   -1.4461 O   0  0  0  0  0  0  0  0  0  0  0  0
   -3.9230    0.1593    1.4184 H   0  0  0  0  0  0  0  0  0  0  0  0
   -4.5863    0.8739   -0.0699 H   0  0  0  0  0  0  0  0  0  0  0  0
   -1.3023    0.7036    0.7633 H   0  0  0  0  0  0  0  0  0  0  0  0
   -0.7550   -1.3194   -1.4487 H   0  0  0  0  0  0  0  0  0  0  0  0
   -0.0257   -2.0139    0.8588 H   0  0  0  0  0  0  0  0  0  0  0  0
    1.2083   -2.0767   -0.4447 H   0  0  0  0  0  0  0  0  0  0  0  0
    2.3259   -1.2046    1.4063 H   0  0  0  0  0  0  0  0  0  0  0  0
    1.0071    1.0084    2.0319 H   0  0  0  0  0  0  0  0  0  0  0  0
    2.7343    1.2324    0.7085 H   0  0  0  0  0  0  0  0  0  0  0  0
    3.4776    0.6345   -1.2648 H   0  0  0  0  0  0  0  0  0  0  0  0
    1.4866    2.0139   -1.3036 H   0  0  0  0  0  0  0  0  0  0  0  0
    0.3426    1.6972    0.0783 H   0  0  0  0  0  0  0  0  0  0  0  0
  1  2  1  0
  2  3  2  0
  2  4  1  0
  4  5  1  0
  5  6  1  0
  6  7  1  0
  7  8  1  0
  7  9  1  0
  9 10  1  0
  9 11  1  0
 11 12  1  0
 12  5  1  0
  1 13  1  0
  1 14  1  0
  4 15  1  0
  5 16  1  6
  6 17  1  0
  6 18  1  0
  7 19  1  1
  8 20  1  0
  9 21  1  1
 10 22  1  0
 11 23  1  0
 11 24  1  0
M  END
$$$$

     RDKit          3D

 24 24  0  0  0  0  0  0  0  0999 V2000
    4.3578    0.2571    0.2546 N   0  0  0  0  0  0  0  0  0  0  0  0
    3.0634   -0.2278    0.5000 C   0  0  0  0  0  0  0  0  0  0  0  0
    2.9462   -1.3822    1.0243 O   0  0  0  0  0  0  0  0  0  0  0  0
    1.8660    0.4861    0.2015 N   0  0  0  0  0  0  0  0  0  0  0  0
    0.5486   -0.0588    0.4745 C   0  0  2  0  0  0  0  0  0  0  0  0
   -0.1632   -0.2493   -0.8523 C   0  0  0  0  0  0  0  0  0  0  0  0
   -1.5332   -0.7975   -0.5094 C   0  0  2  0  0  0  0  0  0  0  0  0
   -2.2499   -1.1529   -1.6439 O   0  0  0  0  0  0  0  0  0  0  0  0
   -2.2245    0.3108    0.2681 C   0  0  1  0  0  0  0  0  0  0  0  0
   -3.5250   -0.0335    0.6037 O   0  0  0  0  0  0  0  0  0  0  0  0
   -1.4362    0.5379    1.5197 C   0  0  0  0  0  0  0  0  0  0  0  0
   -0.1094    0.8168    1.3064 O   0  0  0  0  0  0  0  0  0  0  0  0
    4.5671    1.2762    0.2517 H   0  0  0  0  0  0  0  0  0  0  0  0
    5.1344   -0.4001    0.0702 H   0  0  0  0  0  0  0  0  0  0  0  0
    1.9873    1.4282   -0.2269 H   0  0  0  0  0  0  0  0  0  0  0  0
    0.6752   -1.0582    0.9239 H   0  0  0  0  0  0  0  0  0  0  0  0
    0.4041   -0.9304   -1.4797 H   0  0  0  0  0  0  0  0  0  0  0  0
   -0.2959    0.7619   -1.3337 H   0  0  0  0  0  0  0  0  0  0  0  0
   -1.3835   -1.6917    0.1415 H   0  0  0  0  0  0  0  0  0  0  0  0
   -3.1695   -0.7631   -1.5190 H   0  0  0  0  0  0  0  0  0  0  0  0
   -2.2020    1.2335   -0.3388 H   0  0  0  0  0  0  0  0  0  0  0  0
   -3.8037    0.5459    1.3567 H   0  0  0  0  0  0  0  0  0  0  0  0
   -1.8822    1.4154    2.0378 H   0  0  0  0  0  0  0  0  0  0  0  0
   -1.5721   -0.3241    2.2362 H   0  0  0  0  0  0  0  0  0  0  0  0
  1  2  1  0
  2  3  2  0
  2  4  1  0
  4  5  1  0
  5  6  1  0
  6  7  1  0
  7  8  1  0
  7  9  1  0
  9 10  1  0
  9 11  1  0
 11 12  1  0
 12  5  1  0
  1 13  1  0
  1 14  1  0
  4 15  1  0
  5 16  1  1
  6 17  1  0
  6 18  1  0
  7 19  1  1
  8 20  1  0
  9 21  1  6
 10 22  1  0
 11 23  1  0
 11 24  1  0
M  END
$$$$
