
     RDKit          3D

 17 18  0  0  0  0  0  0  0  0999 V2000
   -1.5662    2.3234    1.2474 O   0  0  0  0  0  0  0  0  0  0  0  0
   -1.9814    1.5570    0.3836 N   0  0  0  0  0  0  0  0  0  0  0  0
   -1.2735    0.4590   -0.1087 N   0  0  0  0  0  0  0  0  0  0  0  0
   -1.6675   -0.8994    0.0180 C   0  0  0  0  0  0  0  0  0  0  0  0
   -2.7597   -1.3777    0.4447 O   0  0  0  0  0  0  0  0  0  0  0  0
   -0.6002   -1.7433   -0.4292 N   0  0  0  0  0  0  0  0  0  0  0  0
    0.5549   -0.9086   -0.5168 C   0  0  2  0  0  0  0  0  0  0  0  0
    1.1611   -0.6579    0.7895 N   0  0  0  0  0  0  0  0  0  0  0  0
    1.7040    0.6539    0.6936 C   0  0  0  0  0  0  0  0  0  0  0  0
    2.6857    1.0977    1.3745 O   0  0  0  0  0  0  0  0  0  0  0  0
    0.9540    1.3584   -0.2889 N   0  0  0  0  0  0  0  0  0  0  0  0
   -0.0287    0.4723   -0.8289 C   0  0  2  0  0  0  0  0  0  0  0  0
   -0.6193   -2.7599   -0.6551 H   0  0  0  0  0  0  0  0  0  0  0  0
    1.2976   -1.2163   -1.2619 H   0  0  0  0  0  0  0  0  0  0  0  0
    1.1986   -1.2874    1.6209 H   0  0  0  0  0  0  0  0  0  0  0  0
    1.1060    2.3457   -0.5567 H   0  0  0  0  0  0  0  0  0  0  0  0
   -0.1653    0.5827   -1.9258 H   0  0  0  0  0  0  0  0  0  0  0  0
  1  2  2  0
  2  3  1  0
  3  4  1  0
  4  5  2  0
  4  6  1  0
  6  7  1  0
  7  8  1  0
  8  9  1  0
  9 10  2  0
  9 11  1  0
 11 12  1  0
 12  3  1  0
 12  7  1  0
  6 13  1  0
  7 14  1  6
  8 15  1  0
 11 16  1  0
 12 17  1  6
M  END
$$$$

     RDKit          3D

 17 18  0  0  0  0  0  0  0  0999 V2000
   -2.0642   -1.9504   -0.5973 O   0  0  0  0  0  0  0  0  0  0  0  0
   -2.2682   -1.0823    0.3033 N   0  0  0  0  0  0  0  0  0  0  0  0
   -1.2828   -0.0766    0.4594 N   0  0  0  0  0  0  0  0  0  0  0  0
   -1.4531    1.3127    0.1800 C   0  0  0  0  0  0  0  0  0  0  0  0
   -2.5818    1.9125    0.2124 O   0  0  0  0  0  0  0  0  0  0  0  0
   -0.1845    1.8781   -0.1278 N   0  0  0  0  0  0  0  0  0  0  0  0
    0.7924    0.8349    0.0915 C   0  0  2  0  0  0  0  0  0  0  0  0
    1.1291    0.1040   -1.0916 N   0  0  0  0  0  0  0  0  0  0  0  0
    1.4014   -1.2484   -0.6936 C   0  0  0  0  0  0  0  0  0  0  0  0
    2.1265   -2.0997   -1.2574 O   0  0  0  0  0  0  0  0  0  0  0  0
    0.6709   -1.4686    0.5107 N   0  0  0  0  0  0  0  0  0  0  0  0
    0.0760   -0.2244    0.9224 C   0  0  2  0  0  0  0  0  0  0  0  0
   -0.0101    2.8403   -0.4430 H   0  0  0  0  0  0  0  0  0  0  0  0
    1.6917    1.1974    0.6026 H   0  0  0  0  0  0  0  0  0  0  0  0
    1.1826    0.4404   -2.0842 H   0  0  0  0  0  0  0  0  0  0  0  0
    0.5676   -2.3687    1.0283 H   0  0  0  0  0  0  0  0  0  0  0  0
    0.2065   -0.0015    1.9846 H   0  0  0  0  0  0  0  0  0  0  0  0
  1  2  2  0
  2  3  1  0
  3  4  1  0
  4  5  2  0
  4  6  1  0
  6  7  1  0
  7  8  1  0
  8  9  1  0
  9 10  2  0
  9 11  1  0
 11 12  1  0
 12  3  1  0
 12  7  1  0
  6 13  1  0
  7 14  1  1
  8 15  1  0
 11 16  1  0
 12 17  1  1
M  END
$$$$

     RDKit          3D

 17 18  0  0  0  0  0  0  0  0999 V2000
    2.8001    1.1071   -0.9617 O   0  0  0  0  0  0  0  0  0  0  0  0
    2.5762    0.5202    0.1133 N   0  0  0  0  0  0  0  0  0  0  0  0
    1.3784   -0.2097    0.2288 N   0  0  0  0  0  0  0  0  0  0  0  0
    1.1629   -1.4907   -0.3389 C   0  0  0  0  0  0  0  0  0  0  0  0
    2.0441   -2.3555   -0.6705 O   0  0  0  0  0  0  0  0  0  0  0  0
   -0.2336   -1.6794   -0.4914 N   0  0  0  0  0  0  0  0  0  0  0  0
   -0.9189   -0.6680    0.2539 C   0  0  2  0  0  0  0  0  0  0  0  0
   -1.6522    0.2491   -0.5817 N   0  0  0  0  0  0  0  0  0  0  0  0
   -1.2124    1.5556   -0.2860 C   0  0  0  0  0  0  0  0  0  0  0  0
   -1.6514    2.5890   -0.8208 O   0  0  0  0  0  0  0  0  0  0  0  0
   -0.1990    1.5366    0.7059 N   0  0  0  0  0  0  0  0  0  0  0  0
    0.1629    0.1589    0.9141 C   0  0  2  0  0  0  0  0  0  0  0  0
   -0.7242   -2.4183   -1.0445 H   0  0  0  0  0  0  0  0  0  0  0  0
   -1.6085   -1.1023    1.0272 H   0  0  0  0  0  0  0  0  0  0  0  0
   -2.3720   -0.0273   -1.2716 H   0  0  0  0  0  0  0  0  0  0  0  0
    0.2358    2.3337    1.2173 H   0  0  0  0  0  0  0  0  0  0  0  0
    0.2119   -0.0992    2.0067 H   0  0  0  0  0  0  0  0  0  0  0  0
  1  2  2  0
  2  3  1  0
  3  4  1  0
  4  5  2  0
  4  6  1  0
  6  7  1  0
  7  8  1  0
  8  9  1  0
  9 10  2  0
  9 11  1  0
 11 12  1  0
 12  3  1  0
 12  7  1  0
  6 13  1  0
  7 14  1  1
  8 15  1  0
 11 16  1  0
 12 17  1  1
M  END
$$$$

     RDKit          3D

 17 18  0  0  0  0  0  0  0  0999 V2000
    0.5187    3.1677    0.3733 O   0  0  0  0  0  0  0  0  0  0  0  0
    1.4128    2.3133    0.3718 N   0  0  0  0  0  0  0  0  0  0  0  0
    1.1320    0.9268    0.3976 N   0  0  0  0  0  0  0  0  0  0  0  0
    1.9511   -0.0559   -0.2115 C   0  0  0  0  0  0  0  0  0  0  0  0
    3.1779    0.0194   -0.5065 O   0  0  0  0  0  0  0  0  0  0  0  0
    1.1244   -1.1929   -0.4463 N   0  0  0  0  0  0  0  0  0  0  0  0
    0.0027   -1.1124    0.4542 C   0  0  2  0  0  0  0  0  0  0  0  0
   -1.2324   -1.2688   -0.2650 N   0  0  0  0  0  0  0  0  0  0  0  0
   -2.0583   -0.1600    0.0093 C   0  0  0  0  0  0  0  0  0  0  0  0
   -3.2889   -0.0132   -0.1788 O   0  0  0  0  0  0  0  0  0  0  0  0
   -1.2336    0.8604    0.5788 N   0  0  0  0  0  0  0  0  0  0  0  0
    0.0063    0.2707    1.0217 C   0  0  2  0  0  0  0  0  0  0  0  0
    1.2659   -1.9704   -1.1360 H   0  0  0  0  0  0  0  0  0  0  0  0
    0.0832   -1.8884    1.2441 H   0  0  0  0  0  0  0  0  0  0  0  0
   -1.4615   -2.0714   -0.8799 H   0  0  0  0  0  0  0  0  0  0  0  0
   -1.4604    1.8707    0.6735 H   0  0  0  0  0  0  0  0  0  0  0  0
    0.0601    0.3044    2.1216 H   0  0  0  0  0  0  0  0  0  0  0  0
  1  2  2  0
  2  3  1  0
  3  4  1  0
  4  5  2  0
  4  6  1  0
  6  7  1  0
  7  8  1  0
  8  9  1  0
  9 10  2  0
  9 11  1  0
 11 12  1  0
 12  3  1  0
 12  7  1  0
  6 13  1  0
  7 14  1  1
  8 15  1  0
 11 16  1  0
 12 17  1  1
M  END
$$$$

     RDKit          3D

 17 18  0  0  0  0  0  0  0  0999 V2000
    2.5909    1.8676   -0.5134 O   0  0  0  0  0  0  0  0  0  0  0  0
    2.0569    1.3537    0.4841 N   0  0  0  0  0  0  0  0  0  0  0  0
    1.2381    0.2154    0.4217 N   0  0  0  0  0  0  0  0  0  0  0  0
    1.6021   -0.9895   -0.2421 C   0  0  0  0  0  0  0  0  0  0  0  0
    2.7852   -1.4178   -0.4633 O   0  0  0  0  0  0  0  0  0  0  0  0
    0.3978   -1.6498   -0.6255 N   0  0  0  0  0  0  0  0  0  0  0  0
   -0.7048   -0.9185   -0.0640 C   0  0  2  0  0  0  0  0  0  0  0  0
   -1.3282   -0.0064   -0.9704 N   0  0  0  0  0  0  0  0  0  0  0  0
   -1.6094    1.1960   -0.2358 C   0  0  0  0  0  0  0  0  0  0  0  0
   -2.3746    2.1189   -0.6251 O   0  0  0  0  0  0  0  0  0  0  0  0
   -0.8894    1.1702    0.9873 N   0  0  0  0  0  0  0  0  0  0  0  0
   -0.0731   -0.0001    0.9714 C   0  0  2  0  0  0  0  0  0  0  0  0
    0.3281   -2.5137   -1.2116 H   0  0  0  0  0  0  0  0  0  0  0  0
   -1.4618   -1.5893    0.3764 H   0  0  0  0  0  0  0  0  0  0  0  0
   -1.5521   -0.1504   -1.9777 H   0  0  0  0  0  0  0  0  0  0  0  0
   -0.9403    1.8701    1.7586 H   0  0  0  0  0  0  0  0  0  0  0  0
   -0.0654   -0.5564    1.9295 H   0  0  0  0  0  0  0  0  0  0  0  0
  1  2  2  0
  2  3  1  0
  3  4  1  0
  4  5  2  0
  4  6  1  0
  6  7  1  0
  7  8  1  0
  8  9  1  0
  9 10  2  0
  9 11  1  0
 11 12  1  0
 12  3  1  0
 12  7  1  0
  6 13  1  0
  7 14  1  1
  8 15  1  0
 11 16  1  0
 12 17  1  1
M  END
$$$$

     RDKit          3D

 17 18  0  0  0  0  0  0  0  0999 V2000
    3.2006   -0.7393   -1.0834 O   0  0  0  0  0  0  0  0  0  0  0  0
    2.8234   -0.1054   -0.0760 N   0  0  0  0  0  0  0  0  0  0  0  0
    1.4820    0.2077    0.0897 N   0  0  0  0  0  0  0  0  0  0  0  0
    0.9288    1.2192    0.9050 C   0  0  0  0  0  0  0  0  0  0  0  0
    1.4666    1.6940    1.9517 O   0  0  0  0  0  0  0  0  0  0  0  0
   -0.3097    1.5916    0.3434 N   0  0  0  0  0  0  0  0  0  0  0  0
   -0.6502    0.6349   -0.6747 C   0  0  2  0  0  0  0  0  0  0  0  0
   -1.8765   -0.0619   -0.3463 N   0  0  0  0  0  0  0  0  0  0  0  0
   -1.5532   -1.2098    0.4412 C   0  0  0  0  0  0  0  0  0  0  0  0
   -2.3585   -1.8895    1.1219 O   0  0  0  0  0  0  0  0  0  0  0  0
   -0.1597   -1.4531    0.3233 N   0  0  0  0  0  0  0  0  0  0  0  0
    0.3834   -0.4624   -0.5583 C   0  0  2  0  0  0  0  0  0  0  0  0
   -0.8951    2.4142    0.6054 H   0  0  0  0  0  0  0  0  0  0  0  0
   -0.6608    1.0618   -1.6893 H   0  0  0  0  0  0  0  0  0  0  0  0
   -2.8264    0.2111   -0.6255 H   0  0  0  0  0  0  0  0  0  0  0  0
    0.3395   -2.2219    0.8060 H   0  0  0  0  0  0  0  0  0  0  0  0
    0.6658   -0.8912   -1.5342 H   0  0  0  0  0  0  0  0  0  0  0  0
  1  2  2  0
  2  3  1  0
  3  4  1  0
  4  5  2  0
  4  6  1  0
  6  7  1  0
  7  8  1  0
  8  9  1  0
  9 10  2  0
  9 11  1  0
 11 12  1  0
 12  3  1  0
 12  7  1  0
  6 13  1  0
  7 14  1  6
  8 15  1  0
 11 16  1  0
 12 17  1  6
M  END
$$$$

     RDKit          3D

 17 18  0  0  0  0  0  0  0  0999 V2000
    1.4300    2.7860   -0.5792 O   0  0  0  0  0  0  0  0  0  0  0  0
    1.9810    1.7641   -0.1414 N   0  0  0  0  0  0  0  0  0  0  0  0
    1.3647    0.5093   -0.0972 N   0  0  0  0  0  0  0  0  0  0  0  0
    1.7026   -0.6274   -0.8787 C   0  0  0  0  0  0  0  0  0  0  0  0
    2.8411   -0.8785   -1.4127 O   0  0  0  0  0  0  0  0  0  0  0  0
    0.5319   -1.4251   -0.9491 N   0  0  0  0  0  0  0  0  0  0  0  0
   -0.3112   -1.1003    0.1798 C   0  0  2  0  0  0  0  0  0  0  0  0
   -1.6701   -0.7868   -0.2180 N   0  0  0  0  0  0  0  0  0  0  0  0
   -1.9438    0.5597    0.1539 C   0  0  0  0  0  0  0  0  0  0  0  0
   -3.0462    1.1833    0.0960 O   0  0  0  0  0  0  0  0  0  0  0  0
   -0.7510    1.1735    0.6343 N   0  0  0  0  0  0  0  0  0  0  0  0
    0.2618    0.1475    0.7669 C   0  0  2  0  0  0  0  0  0  0  0  0
    0.2974   -2.1354   -1.6830 H   0  0  0  0  0  0  0  0  0  0  0  0
   -0.3149   -1.9487    0.9243 H   0  0  0  0  0  0  0  0  0  0  0  0
   -2.3207   -1.4251   -0.6861 H   0  0  0  0  0  0  0  0  0  0  0  0
   -0.6219    2.1709    0.8519 H   0  0  0  0  0  0  0  0  0  0  0  0
    0.5693    0.0330    1.8272 H   0  0  0  0  0  0  0  0  0  0  0  0
  1  2  2  0
  2  3  1  0
  3  4  1  0
  4  5  2  0
  4  6  1  0
  6  7  1  0
  7  8  1  0
  8  9  1  0
  9 10  2  0
  9 11  1  0
 11 12  1  0
 12  3  1  0
 12  7  1  0
  6 13  1  0
  7 14  1  1
  8 15  1  0
 11 16  1  0
 12 17  1  1
M  END
$$$$

     RDKit          3D

 17 18  0  0  0  0  0  0  0  0999 V2000
    1.4708    3.1904    0.5252 O   0  0  0  0  0  0  0  0  0  0  0  0
    1.5989    2.3300   -0.3916 N   0  0  0  0  0  0  0  0  0  0  0  0
    1.1151    1.0227   -0.2328 N   0  0  0  0  0  0  0  0  0  0  0  0
    1.8113   -0.1746   -0.5914 C   0  0  0  0  0  0  0  0  0  0  0  0
    2.9788   -0.2225   -1.0863 O   0  0  0  0  0  0  0  0  0  0  0  0
    0.9413   -1.2557   -0.2834 N   0  0  0  0  0  0  0  0  0  0  0  0
    0.0279   -0.7869    0.7391 C   0  0  2  0  0  0  0  0  0  0  0  0
   -1.2798   -1.3392    0.6289 N   0  0  0  0  0  0  0  0  0  0  0  0
   -2.0609   -0.5042   -0.2086 C   0  0  0  0  0  0  0  0  0  0  0  0
   -3.2829   -0.6497   -0.5163 O   0  0  0  0  0  0  0  0  0  0  0  0
   -1.2022    0.5662   -0.6610 N   0  0  0  0  0  0  0  0  0  0  0  0
   -0.1557    0.6756    0.3147 C   0  0  2  0  0  0  0  0  0  0  0  0
    1.0040   -2.1858   -0.7449 H   0  0  0  0  0  0  0  0  0  0  0  0
    0.4652   -0.8428    1.7557 H   0  0  0  0  0  0  0  0  0  0  0  0
   -1.6163   -2.2064    1.0810 H   0  0  0  0  0  0  0  0  0  0  0  0
   -1.3681    1.1098   -1.5326 H   0  0  0  0  0  0  0  0  0  0  0  0
   -0.4473    1.2729    1.2044 H   0  0  0  0  0  0  0  0  0  0  0  0
  1  2  2  0
  2  3  1  0
  3  4  1  0
  4  5  2  0
  4  6  1  0
  6  7  1  0
  7  8  1  0
  8  9  1  0
  9 10  2  0
  9 11  1  0
 11 12  1  0
 12  3  1  0
 12  7  1  0
  6 13  1  0
  7 14  1  1
  8 15  1  0
 11 16  1  0
 12 17  1  1
M  END
$$$$
