
     RDKit          3D

 24 24  0  0  0  0  0  0  0  0999 V2000
   -2.1078   -0.4631    1.2526 N   0  0  0  0  0  0  0  0  0  0  0  0
   -1.9750   -0.3588   -0.1786 C   0  0  2  0  0  0  0  0  0  0  0  0
   -0.6083    0.1916   -0.5363 C   0  0  0  0  0  0  0  0  0  0  0  0
    0.5016   -0.7034   -0.0240 C   0  0  0  0  0  0  0  0  0  0  0  0
    1.8159   -0.0768   -0.4261 C   0  0  2  0  0  0  0  0  0  0  0  0
    3.0492   -0.8331    0.0004 C   0  0  0  0  0  0  0  0  0  0  0  0
    3.6140    0.4797    0.2864 N   0  0  0  0  0  0  0  0  0  0  0  0
    2.2940    0.9133    0.5735 C   0  0  0  0  0  0  0  0  0  0  0  0
    1.8719    1.7850    1.3705 O   0  0  0  0  0  0  0  0  0  0  0  0
   -2.9808    0.5943   -0.7153 C   0  0  0  0  0  0  0  0  0  0  0  0
   -3.0567    0.8478   -1.9407 O   0  0  0  0  0  0  0  0  0  0  0  0
   -3.8606    1.2228    0.1546 O   0  0  0  0  0  0  0  0  0  0  0  0
   -3.1081   -0.4051    1.5597 H   0  0  0  0  0  0  0  0  0  0  0  0
   -1.6532   -1.3462    1.5986 H   0  0  0  0  0  0  0  0  0  0  0  0
   -2.1175   -1.3664   -0.6465 H   0  0  0  0  0  0  0  0  0  0  0  0
   -0.5497    0.1639   -1.6532 H   0  0  0  0  0  0  0  0  0  0  0  0
   -0.5473    1.2121   -0.1327 H   0  0  0  0  0  0  0  0  0  0  0  0
    0.4318   -0.8614    1.0589 H   0  0  0  0  0  0  0  0  0  0  0  0
    0.4164   -1.6739   -0.5423 H   0  0  0  0  0  0  0  0  0  0  0  0
    1.8482    0.3384   -1.4380 H   0  0  0  0  0  0  0  0  0  0  0  0
    3.5711   -1.3884   -0.7966 H   0  0  0  0  0  0  0  0  0  0  0  0
    2.8709   -1.3938    0.9260 H   0  0  0  0  0  0  0  0  0  0  0  0
    4.5214    0.9753    0.3053 H   0  0  0  0  0  0  0  0  0  0  0  0
   -4.2412    2.1463   -0.0562 H   0  0  0  0  0  0  0  0  0  0  0  0
  1  2  1  0
  2  3  1  0
  3  4  1  0
  4  5  1  0
  5  6  1  0
  6  7  1  0
  7  8  1  0
  8  9  2  0
  2 10  1  0
 10 11  2  0
 10 12  1  0
  8  5  1  0
  1 13  1  0
  1 14  1  0
  2 15  1  6
  3 16  1  0
  3 17  1  0
  4 18  1  0
  4 19  1  0
  5 20  1  6
  6 21  1  0
  6 22  1  0
  7 23  1  0
 12 24  1  0
M  END
$$$$

     RDKit          3D

 24 24  0  0  0  0  0  0  0  0999 V2000
   -1.9108    1.0491   -0.3361 N   0  0  0  0  0  0  0  0  0  0  0  0
   -1.2180   -0.1512    0.0864 C   0  0  2  0  0  0  0  0  0  0  0  0
   -0.3461   -0.7125   -1.0013 C   0  0  0  0  0  0  0  0  0  0  0  0
    0.7039    0.1620   -1.5276 C   0  0  0  0  0  0  0  0  0  0  0  0
    1.7544    0.7025   -0.6581 C   0  0  2  0  0  0  0  0  0  0  0  0
    2.6048   -0.2922    0.0842 C   0  0  0  0  0  0  0  0  0  0  0  0
    2.6278    0.6378    1.1671 N   0  0  0  0  0  0  0  0  0  0  0  0
    1.5294    1.3260    0.6132 C   0  0  0  0  0  0  0  0  0  0  0  0
    0.7435    2.1593    1.1861 O   0  0  0  0  0  0  0  0  0  0  0  0
   -2.3184   -1.1534    0.4138 C   0  0  0  0  0  0  0  0  0  0  0  0
   -2.0458   -2.3051    0.8135 O   0  0  0  0  0  0  0  0  0  0  0  0
   -3.6447   -0.8029    0.2732 O   0  0  0  0  0  0  0  0  0  0  0  0
   -2.2606    1.5352    0.5307 H   0  0  0  0  0  0  0  0  0  0  0  0
   -2.7385    0.8280   -0.9325 H   0  0  0  0  0  0  0  0  0  0  0  0
   -0.6968   -0.0209    1.0538 H   0  0  0  0  0  0  0  0  0  0  0  0
    0.0002   -1.7384   -0.7217 H   0  0  0  0  0  0  0  0  0  0  0  0
   -1.0549   -0.9262   -1.8659 H   0  0  0  0  0  0  0  0  0  0  0  0
    1.2212   -0.3176   -2.4169 H   0  0  0  0  0  0  0  0  0  0  0  0
    0.1862    1.0592   -2.0055 H   0  0  0  0  0  0  0  0  0  0  0  0
    2.4657    1.3942   -1.2623 H   0  0  0  0  0  0  0  0  0  0  0  0
    1.9994   -1.2112    0.3251 H   0  0  0  0  0  0  0  0  0  0  0  0
    3.5822   -0.5215   -0.3888 H   0  0  0  0  0  0  0  0  0  0  0  0
    3.2045    0.7732    2.0204 H   0  0  0  0  0  0  0  0  0  0  0  0
   -4.3888   -1.4735    0.3483 H   0  0  0  0  0  0  0  0  0  0  0  0
  1  2  1  0
  2  3  1  0
  3  4  1  0
  4  5  1  0
  5  6  1  0
  6  7  1  0
  7  8  1  0
  8  9  2  0
  2 10  1  0
 10 11  2  0
 10 12  1  0
  8  5  1  0
  1 13  1  0
  1 14  1  0
  2 15  1  1
  3 16  1  0
  3 17  1  0
  4 18  1  0
  4 19  1  0
  5 20  1  6
  6 21  1  0
  6 22  1  0
  7 23  1  0
 12 24  1  0
M  END
$$$$

     RDKit          3D

 24 24  0  0  0  0  0  0  0  0999 V2000
   -1.9047   -1.0611   -0.9934 N   0  0  0  0  0  0  0  0  0  0  0  0
   -1.8821    0.2866   -0.5155 C   0  0  2  0  0  0  0  0  0  0  0  0
   -0.6030    0.4723    0.2883 C   0  0  0  0  0  0  0  0  0  0  0  0
    0.5452    0.1919   -0.6693 C   0  0  0  0  0  0  0  0  0  0  0  0
    1.8211    0.3718    0.1128 C   0  0  2  0  0  0  0  0  0  0  0  0
    3.0892    0.1239   -0.7128 C   0  0  0  0  0  0  0  0  0  0  0  0
    3.6189   -0.4096    0.5311 N   0  0  0  0  0  0  0  0  0  0  0  0
    2.2999   -0.8271    0.8325 C   0  0  0  0  0  0  0  0  0  0  0  0
    1.8763   -1.8195    1.4561 O   0  0  0  0  0  0  0  0  0  0  0  0
   -3.0874    0.6160    0.2434 C   0  0  0  0  0  0  0  0  0  0  0  0
   -3.2363    1.7619    0.7385 O   0  0  0  0  0  0  0  0  0  0  0  0
   -4.0840   -0.3214    0.4317 O   0  0  0  0  0  0  0  0  0  0  0  0
   -2.6034   -1.6708   -0.5548 H   0  0  0  0  0  0  0  0  0  0  0  0
   -1.7463   -1.1859   -1.9946 H   0  0  0  0  0  0  0  0  0  0  0  0
   -1.8146    0.9607   -1.3998 H   0  0  0  0  0  0  0  0  0  0  0  0
   -0.5542    1.5248    0.6230 H   0  0  0  0  0  0  0  0  0  0  0  0
   -0.5558   -0.1896    1.1561 H   0  0  0  0  0  0  0  0  0  0  0  0
    0.5559    0.9358   -1.4855 H   0  0  0  0  0  0  0  0  0  0  0  0
    0.4711   -0.8282   -1.0657 H   0  0  0  0  0  0  0  0  0  0  0  0
    1.8848    1.2959    0.6865 H   0  0  0  0  0  0  0  0  0  0  0  0
    3.5710    1.0192   -1.0969 H   0  0  0  0  0  0  0  0  0  0  0  0
    2.8888   -0.6482   -1.4797 H   0  0  0  0  0  0  0  0  0  0  0  0
    4.4938   -0.5097    1.0665 H   0  0  0  0  0  0  0  0  0  0  0  0
   -5.0442   -0.0899    0.6491 H   0  0  0  0  0  0  0  0  0  0  0  0
  1  2  1  0
  2  3  1  0
  3  4  1  0
  4  5  1  0
  5  6  1  0
  6  7  1  0
  7  8  1  0
  8  9  2  0
  2 10  1  0
 10 11  2  0
 10 12  1  0
  8  5  1  0
  1 13  1  0
  1 14  1  0
  2 15  1  6
  3 16  1  0
  3 17  1  0
  4 18  1  0
  4 19  1  0
  5 20  1  1
  6 21  1  0
  6 22  1  0
  7 23  1  0
 12 24  1  0
M  END
$$$$

     RDKit          3D

 24 24  0  0  0  0  0  0  0  0999 V2000
   -2.4914   -0.4894    0.9500 N   0  0  0  0  0  0  0  0  0  0  0  0
   -1.8112   -0.6586   -0.3210 C   0  0  2  0  0  0  0  0  0  0  0  0
   -0.5874   -1.4983   -0.2103 C   0  0  0  0  0  0  0  0  0  0  0  0
    0.4718   -1.0232    0.7068 C   0  0  0  0  0  0  0  0  0  0  0  0
    1.1010    0.2825    0.4423 C   0  0  2  0  0  0  0  0  0  0  0  0
    1.8246    0.5073   -0.8371 C   0  0  0  0  0  0  0  0  0  0  0  0
    2.8531    1.1722   -0.0208 N   0  0  0  0  0  0  0  0  0  0  0  0
    2.4746    0.3173    1.0404 C   0  0  0  0  0  0  0  0  0  0  0  0
    3.1063   -0.1501    2.0168 O   0  0  0  0  0  0  0  0  0  0  0  0
   -1.6704    0.6337   -0.9763 C   0  0  0  0  0  0  0  0  0  0  0  0
   -1.1911    0.6339   -2.1549 O   0  0  0  0  0  0  0  0  0  0  0  0
   -2.0427    1.8293   -0.3469 O   0  0  0  0  0  0  0  0  0  0  0  0
   -3.3599    0.0867    0.7335 H   0  0  0  0  0  0  0  0  0  0  0  0
   -1.9438    0.1130    1.6103 H   0  0  0  0  0  0  0  0  0  0  0  0
   -2.5410   -1.2527   -0.9573 H   0  0  0  0  0  0  0  0  0  0  0  0
   -0.2174   -1.7102   -1.2323 H   0  0  0  0  0  0  0  0  0  0  0  0
   -0.9309   -2.4995    0.1855 H   0  0  0  0  0  0  0  0  0  0  0  0
    0.0547   -1.0676    1.7551 H   0  0  0  0  0  0  0  0  0  0  0  0
    1.2728   -1.8201    0.7251 H   0  0  0  0  0  0  0  0  0  0  0  0
    0.5431    1.1947    0.7364 H   0  0  0  0  0  0  0  0  0  0  0  0
    1.3707    1.2150   -1.5291 H   0  0  0  0  0  0  0  0  0  0  0  0
    2.2424   -0.4117   -1.3287 H   0  0  0  0  0  0  0  0  0  0  0  0
    3.5634    1.9187   -0.0983 H   0  0  0  0  0  0  0  0  0  0  0  0
   -2.0912    2.6770   -0.8893 H   0  0  0  0  0  0  0  0  0  0  0  0
  1  2  1  0
  2  3  1  0
  3  4  1  0
  4  5  1  0
  5  6  1  0
  6  7  1  0
  7  8  1  0
  8  9  2  0
  2 10  1  0
 10 11  2  0
 10 12  1  0
  8  5  1  0
  1 13  1  0
  1 14  1  0
  2 15  1  6
  3 16  1  0
  3 17  1  0
  4 18  1  0
  4 19  1  0
  5 20  1  1
  6 21  1  0
  6 22  1  0
  7 23  1  0
 12 24  1  0
M  END
$$$$

     RDKit          3D

 24 24  0  0  0  0  0  0  0  0999 V2000
    1.8409    1.3190    0.1560 N   0  0  0  0  0  0  0  0  0  0  0  0
    1.4721    0.0702   -0.5060 C   0  0  2  0  0  0  0  0  0  0  0  0
    0.7867   -0.8040    0.5115 C   0  0  0  0  0  0  0  0  0  0  0  0
   -0.4548   -0.1546    1.0711 C   0  0  0  0  0  0  0  0  0  0  0  0
   -1.4835    0.1508    0.0310 C   0  0  2  0  0  0  0  0  0  0  0  0
   -2.7015    0.7977    0.6558 C   0  0  0  0  0  0  0  0  0  0  0  0
   -3.4892   -0.0542   -0.2310 N   0  0  0  0  0  0  0  0  0  0  0  0
   -2.3995   -0.9393   -0.3302 C   0  0  0  0  0  0  0  0  0  0  0  0
   -2.2728   -2.1485   -0.6099 O   0  0  0  0  0  0  0  0  0  0  0  0
    2.7421   -0.5973   -0.9430 C   0  0  0  0  0  0  0  0  0  0  0  0
    2.6954   -1.6907   -1.5379 O   0  0  0  0  0  0  0  0  0  0  0  0
    3.9770   -0.0223   -0.6989 O   0  0  0  0  0  0  0  0  0  0  0  0
    1.1398    2.0279   -0.1604 H   0  0  0  0  0  0  0  0  0  0  0  0
    2.7789    1.6448   -0.1979 H   0  0  0  0  0  0  0  0  0  0  0  0
    0.8090    0.2159   -1.3679 H   0  0  0  0  0  0  0  0  0  0  0  0
    1.4982   -0.9470    1.3481 H   0  0  0  0  0  0  0  0  0  0  0  0
    0.5331   -1.7664    0.0105 H   0  0  0  0  0  0  0  0  0  0  0  0
   -0.8829   -0.8512    1.8209 H   0  0  0  0  0  0  0  0  0  0  0  0
   -0.1266    0.7876    1.5888 H   0  0  0  0  0  0  0  0  0  0  0  0
   -1.0752    0.7344   -0.8327 H   0  0  0  0  0  0  0  0  0  0  0  0
   -2.8293    1.8697    0.4662 H   0  0  0  0  0  0  0  0  0  0  0  0
   -2.8437    0.4586    1.6961 H   0  0  0  0  0  0  0  0  0  0  0  0
   -4.4657    0.0613   -0.5776 H   0  0  0  0  0  0  0  0  0  0  0  0
    4.7513   -0.1625   -1.3627 H   0  0  0  0  0  0  0  0  0  0  0  0
  1  2  1  0
  2  3  1  0
  3  4  1  0
  4  5  1  0
  5  6  1  0
  6  7  1  0
  7  8  1  0
  8  9  2  0
  2 10  1  0
 10 11  2  0
 10 12  1  0
  8  5  1  0
  1 13  1  0
  1 14  1  0
  2 15  1  6
  3 16  1  0
  3 17  1  0
  4 18  1  0
  4 19  1  0
  5 20  1  6
  6 21  1  0
  6 22  1  0
  7 23  1  0
 12 24  1  0
M  END
$$$$

     RDKit          3D

 24 24  0  0  0  0  0  0  0  0999 V2000
   -1.8714   -0.4979    1.4741 N   0  0  0  0  0  0  0  0  0  0  0  0
   -1.8382   -0.8981    0.0804 C   0  0  2  0  0  0  0  0  0  0  0  0
   -0.4225   -0.9537   -0.3940 C   0  0  0  0  0  0  0  0  0  0  0  0
    0.2534    0.3913   -0.2680 C   0  0  0  0  0  0  0  0  0  0  0  0
    1.6718    0.3750   -0.7333 C   0  0  2  0  0  0  0  0  0  0  0  0
    2.6061   -0.5538   -0.0265 C   0  0  0  0  0  0  0  0  0  0  0  0
    3.5792    0.5059   -0.1139 N   0  0  0  0  0  0  0  0  0  0  0  0
    2.5101    1.4311   -0.0601 C   0  0  0  0  0  0  0  0  0  0  0  0
    2.3470    2.6036    0.3622 O   0  0  0  0  0  0  0  0  0  0  0  0
   -2.7125   -0.0531   -0.7258 C   0  0  0  0  0  0  0  0  0  0  0  0
   -2.8437   -0.2141   -1.9609 O   0  0  0  0  0  0  0  0  0  0  0  0
   -3.4280    0.9647   -0.1222 O   0  0  0  0  0  0  0  0  0  0  0  0
   -1.7567    0.5389    1.4997 H   0  0  0  0  0  0  0  0  0  0  0  0
   -2.8042   -0.7906    1.8425 H   0  0  0  0  0  0  0  0  0  0  0  0
   -2.2412   -1.9356    0.0475 H   0  0  0  0  0  0  0  0  0  0  0  0
   -0.3703   -1.3219   -1.4312 H   0  0  0  0  0  0  0  0  0  0  0  0
    0.1251   -1.6730    0.2546 H   0  0  0  0  0  0  0  0  0  0  0  0
    0.1298    0.7824    0.7470 H   0  0  0  0  0  0  0  0  0  0  0  0
   -0.3081    1.0855   -0.9429 H   0  0  0  0  0  0  0  0  0  0  0  0
    1.8456    0.4099   -1.8103 H   0  0  0  0  0  0  0  0  0  0  0  0
    2.2695   -0.7825    1.0099 H   0  0  0  0  0  0  0  0  0  0  0  0
    2.8497   -1.4748   -0.5898 H   0  0  0  0  0  0  0  0  0  0  0  0
    4.6014    0.6122   -0.1853 H   0  0  0  0  0  0  0  0  0  0  0  0
   -4.1920    1.4490   -0.5736 H   0  0  0  0  0  0  0  0  0  0  0  0
  1  2  1  0
  2  3  1  0
  3  4  1  0
  4  5  1  0
  5  6  1  0
  6  7  1  0
  7  8  1  0
  8  9  2  0
  2 10  1  0
 10 11  2  0
 10 12  1  0
  8  5  1  0
  1 13  1  0
  1 14  1  0
  2 15  1  1
  3 16  1  0
  3 17  1  0
  4 18  1  0
  4 19  1  0
  5 20  1  6
  6 21  1  0
  6 22  1  0
  7 23  1  0
 12 24  1  0
M  END
$$$$

     RDKit          3D

 24 24  0  0  0  0  0  0  0  0999 V2000
    1.9445   -0.6606   -1.2385 N   0  0  0  0  0  0  0  0  0  0  0  0
    1.9661   -0.3273    0.1665 C   0  0  2  0  0  0  0  0  0  0  0  0
    0.6523    0.3328    0.5840 C   0  0  0  0  0  0  0  0  0  0  0  0
   -0.4811   -0.6472    0.3108 C   0  0  0  0  0  0  0  0  0  0  0  0
   -1.7890   -0.0167    0.7155 C   0  0  2  0  0  0  0  0  0  0  0  0
   -2.9736   -0.9098    0.4835 C   0  0  0  0  0  0  0  0  0  0  0  0
   -3.6231    0.2174   -0.1832 N   0  0  0  0  0  0  0  0  0  0  0  0
   -2.3679    0.9086   -0.3062 C   0  0  0  0  0  0  0  0  0  0  0  0
   -1.9697    1.8778   -0.9953 O   0  0  0  0  0  0  0  0  0  0  0  0
    3.0549    0.6698    0.4528 C   0  0  0  0  0  0  0  0  0  0  0  0
    3.7802    1.0820   -0.4818 O   0  0  0  0  0  0  0  0  0  0  0  0
    3.2722    1.1436    1.7371 O   0  0  0  0  0  0  0  0  0  0  0  0
    2.5449    0.0286   -1.7487 H   0  0  0  0  0  0  0  0  0  0  0  0
    2.3538   -1.6195   -1.3995 H   0  0  0  0  0  0  0  0  0  0  0  0
    2.1161   -1.2223    0.7715 H   0  0  0  0  0  0  0  0  0  0  0  0
    0.4987    1.2974    0.0996 H   0  0  0  0  0  0  0  0  0  0  0  0
    0.7211    0.5070    1.6724 H   0  0  0  0  0  0  0  0  0  0  0  0
   -0.3083   -1.5510    0.9323 H   0  0  0  0  0  0  0  0  0  0  0  0
   -0.5011   -0.9568   -0.7408 H   0  0  0  0  0  0  0  0  0  0  0  0
   -1.7707    0.4890    1.6867 H   0  0  0  0  0  0  0  0  0  0  0  0
   -2.8050   -1.7814   -0.1853 H   0  0  0  0  0  0  0  0  0  0  0  0
   -3.4396   -1.2437    1.4109 H   0  0  0  0  0  0  0  0  0  0  0  0
   -4.6237    0.3690   -0.4307 H   0  0  0  0  0  0  0  0  0  0  0  0
    3.7481    2.0134    1.9215 H   0  0  0  0  0  0  0  0  0  0  0  0
  1  2  1  0
  2  3  1  0
  3  4  1  0
  4  5  1  0
  5  6  1  0
  6  7  1  0
  7  8  1  0
  8  9  2  0
  2 10  1  0
 10 11  2  0
 10 12  1  0
  8  5  1  0
  1 13  1  0
  1 14  1  0
  2 15  1  1
  3 16  1  0
  3 17  1  0
  4 18  1  0
  4 19  1  0
  5 20  1  1
  6 21  1  0
  6 22  1  0
  7 23  1  0
 12 24  1  0
M  END
$$$$

     RDKit          3D

 24 24  0  0  0  0  0  0  0  0999 V2000
    2.9185    0.5501   -1.5598 N   0  0  0  0  0  0  0  0  0  0  0  0
    1.9331   -0.1887   -0.7607 C   0  0  2  0  0  0  0  0  0  0  0  0
    0.6722    0.6307   -0.6041 C   0  0  0  0  0  0  0  0  0  0  0  0
   -0.3206   -0.1233    0.2013 C   0  0  0  0  0  0  0  0  0  0  0  0
   -1.6252    0.6168    0.3879 C   0  0  2  0  0  0  0  0  0  0  0  0
   -2.5700   -0.2424    1.2257 C   0  0  0  0  0  0  0  0  0  0  0  0
   -3.6066    0.2576    0.3622 N   0  0  0  0  0  0  0  0  0  0  0  0
   -2.6338    0.4168   -0.6512 C   0  0  0  0  0  0  0  0  0  0  0  0
   -2.7396    0.3765   -1.9131 O   0  0  0  0  0  0  0  0  0  0  0  0
    2.5676   -0.6012    0.4820 C   0  0  0  0  0  0  0  0  0  0  0  0
    3.7412   -0.1908    0.7443 O   0  0  0  0  0  0  0  0  0  0  0  0
    1.9991   -1.4258    1.4365 O   0  0  0  0  0  0  0  0  0  0  0  0
    3.7514   -0.1003   -1.6187 H   0  0  0  0  0  0  0  0  0  0  0  0
    2.5315    0.5860   -2.5437 H   0  0  0  0  0  0  0  0  0  0  0  0
    1.7356   -1.1164   -1.3649 H   0  0  0  0  0  0  0  0  0  0  0  0
    0.2192    0.8283   -1.6204 H   0  0  0  0  0  0  0  0  0  0  0  0
    0.8886    1.6468   -0.2122 H   0  0  0  0  0  0  0  0  0  0  0  0
    0.0569   -0.2768    1.2529 H   0  0  0  0  0  0  0  0  0  0  0  0
   -0.4889   -1.1242   -0.2163 H   0  0  0  0  0  0  0  0  0  0  0  0
   -1.5441    1.6345    0.7734 H   0  0  0  0  0  0  0  0  0  0  0  0
   -2.3842   -1.3303    1.0685 H   0  0  0  0  0  0  0  0  0  0  0  0
   -2.6284    0.0204    2.2840 H   0  0  0  0  0  0  0  0  0  0  0  0
   -4.6183    0.4315    0.4311 H   0  0  0  0  0  0  0  0  0  0  0  0
    2.1449   -1.2757    2.4155 H   0  0  0  0  0  0  0  0  0  0  0  0
  1  2  1  0
  2  3  1  0
  3  4  1  0
  4  5  1  0
  5  6  1  0
  6  7  1  0
  7  8  1  0
  8  9  2  0
  2 10  1  0
 10 11  2  0
 10 12  1  0
  8  5  1  0
  1 13  1  0
  1 14  1  0
  2 15  1  6
  3 16  1  0
  3 17  1  0
  4 18  1  0
  4 19  1  0
  5 20  1  1
  6 21  1  0
  6 22  1  0
  7 23  1  0
 12 24  1  0
M  END
$$$$
