
     RDKit          3D

 23 23  0  0  0  0  0  0  0  0999 V2000
   -1.5237   -2.1744   -0.3893 N   0  0  0  0  0  0  0  0  0  0  0  0
   -0.8614   -0.9171   -0.3526 C   0  0  2  0  0  0  0  0  0  0  0  0
    0.5793   -1.0228    0.1677 C   0  0  0  0  0  0  0  0  0  0  0  0
    1.2365    0.2491   -0.3563 C   0  0  2  0  0  0  0  0  0  0  0  0
    2.5770    0.4093    0.2402 C   0  0  0  0  0  0  0  0  0  0  0  0
    3.3558   -0.5904    0.1640 O   0  0  0  0  0  0  0  0  0  0  0  0
    3.0402    1.5372    0.8611 O   0  0  0  0  0  0  0  0  0  0  0  0
    0.4327    1.3384   -0.2557 O   0  0  0  0  0  0  0  0  0  0  0  0
   -0.5774    1.2805    0.6565 C   0  0  1  0  0  0  0  0  0  0  0  0
   -1.3630    2.4457    0.4868 O   0  0  0  0  0  0  0  0  0  0  0  0
   -1.5138    0.1204    0.4969 C   0  0  1  0  0  0  0  0  0  0  0  0
   -2.7665    0.4603    0.0544 O   0  0  0  0  0  0  0  0  0  0  0  0
   -0.9693   -2.8294   -0.9644 H   0  0  0  0  0  0  0  0  0  0  0  0
   -1.8168   -2.5350    0.5226 H   0  0  0  0  0  0  0  0  0  0  0  0
   -0.8215   -0.5044   -1.4013 H   0  0  0  0  0  0  0  0  0  0  0  0
    0.5881   -0.9120    1.2910 H   0  0  0  0  0  0  0  0  0  0  0  0
    1.0831   -1.9190   -0.1820 H   0  0  0  0  0  0  0  0  0  0  0  0
    1.4076    0.0509   -1.4558 H   0  0  0  0  0  0  0  0  0  0  0  0
    3.9954    1.5431    1.2360 H   0  0  0  0  0  0  0  0  0  0  0  0
   -0.1563    1.3623    1.6805 H   0  0  0  0  0  0  0  0  0  0  0  0
   -0.8960    3.2242    0.8430 H   0  0  0  0  0  0  0  0  0  0  0  0
   -1.6430   -0.3270    1.5239 H   0  0  0  0  0  0  0  0  0  0  0  0
   -3.3869   -0.2899    0.2828 H   0  0  0  0  0  0  0  0  0  0  0  0
  1  2  1  0
  2  3  1  0
  3  4  1  0
  4  5  1  0
  5  6  2  0
  5  7  1  0
  4  8  1  0
  8  9  1  0
  9 10  1  0
  9 11  1  0
 11 12  1  0
 11  2  1  0
  1 13  1  0
  1 14  1  0
  2 15  1  6
  3 16  1  0
  3 17  1  0
  4 18  1  6
  7 19  1  0
  9 20  1  1
 10 21  1  0
 11 22  1  1
 12 23  1  0
M  END
$$$$

     RDKit          3D

 23 23  0  0  0  0  0  0  0  0999 V2000
    1.4560   -2.1066   -0.3878 N   0  0  0  0  0  0  0  0  0  0  0  0
    0.9659   -0.9745    0.3795 C   0  0  2  0  0  0  0  0  0  0  0  0
   -0.5201   -1.0305    0.5235 C   0  0  0  0  0  0  0  0  0  0  0  0
   -1.1656    0.3211    0.6597 C   0  0  2  0  0  0  0  0  0  0  0  0
   -2.6323    0.1480    0.4896 C   0  0  0  0  0  0  0  0  0  0  0  0
   -3.3369   -0.5392    1.2730 O   0  0  0  0  0  0  0  0  0  0  0  0
   -3.3045    0.7545   -0.5704 O   0  0  0  0  0  0  0  0  0  0  0  0
   -0.6916    1.1264   -0.3585 O   0  0  0  0  0  0  0  0  0  0  0  0
    0.6200    1.4774   -0.0354 C   0  0  1  0  0  0  0  0  0  0  0  0
    0.7110    1.9936    1.2566 O   0  0  0  0  0  0  0  0  0  0  0  0
    1.4825    0.2802   -0.2405 C   0  0  1  0  0  0  0  0  0  0  0  0
    2.7669    0.5426    0.2682 O   0  0  0  0  0  0  0  0  0  0  0  0
    1.5081   -1.8512   -1.3995 H   0  0  0  0  0  0  0  0  0  0  0  0
    0.7859   -2.9054   -0.3157 H   0  0  0  0  0  0  0  0  0  0  0  0
    1.4070   -1.0822    1.4011 H   0  0  0  0  0  0  0  0  0  0  0  0
   -0.8083   -1.6417    1.4029 H   0  0  0  0  0  0  0  0  0  0  0  0
   -0.9365   -1.4971   -0.3974 H   0  0  0  0  0  0  0  0  0  0  0  0
   -0.9729    0.7941    1.6478 H   0  0  0  0  0  0  0  0  0  0  0  0
   -4.2765    1.0569   -0.4711 H   0  0  0  0  0  0  0  0  0  0  0  0
    0.9623    2.2630   -0.7673 H   0  0  0  0  0  0  0  0  0  0  0  0
    0.9907    2.9291    1.2345 H   0  0  0  0  0  0  0  0  0  0  0  0
    1.6008    0.1224   -1.3473 H   0  0  0  0  0  0  0  0  0  0  0  0
    3.3882   -0.1808   -0.0425 H   0  0  0  0  0  0  0  0  0  0  0  0
  1  2  1  0
  2  3  1  0
  3  4  1  0
  4  5  1  0
  5  6  2  0
  5  7  1  0
  4  8  1  0
  8  9  1  0
  9 10  1  0
  9 11  1  0
 11 12  1  0
 11  2  1  0
  1 13  1  0
  1 14  1  0
  2 15  1  1
  3 16  1  0
  3 17  1  0
  4 18  1  1
  7 19  1  0
  9 20  1  6
 10 21  1  0
 11 22  1  6
 12 23  1  0
M  END
$$$$

     RDKit          3D

 23 23  0  0  0  0  0  0  0  0999 V2000
   -1.5476   -2.0037   -0.8489 N   0  0  0  0  0  0  0  0  0  0  0  0
   -0.7826   -0.8165   -0.5813 C   0  0  2  0  0  0  0  0  0  0  0  0
    0.4914   -1.1227    0.2125 C   0  0  0  0  0  0  0  0  0  0  0  0
    1.2818    0.1915    0.1502 C   0  0  2  0  0  0  0  0  0  0  0  0
    2.6441    0.0531    0.6378 C   0  0  0  0  0  0  0  0  0  0  0  0
    3.4311   -0.7596    0.0994 O   0  0  0  0  0  0  0  0  0  0  0  0
    3.1080    0.8073    1.7004 O   0  0  0  0  0  0  0  0  0  0  0  0
    0.5571    1.1349    0.8642 O   0  0  0  0  0  0  0  0  0  0  0  0
   -0.6458    1.4444    0.2635 C   0  0  1  0  0  0  0  0  0  0  0  0
   -0.4816    1.8096   -1.0847 O   0  0  0  0  0  0  0  0  0  0  0  0
   -1.5413    0.2002    0.2341 C   0  0  1  0  0  0  0  0  0  0  0  0
   -2.7688    0.4935   -0.3117 O   0  0  0  0  0  0  0  0  0  0  0  0
   -0.8857   -2.7003   -1.2784 H   0  0  0  0  0  0  0  0  0  0  0  0
   -2.2245   -1.7620   -1.6168 H   0  0  0  0  0  0  0  0  0  0  0  0
   -0.4316   -0.3188   -1.5129 H   0  0  0  0  0  0  0  0  0  0  0  0
    0.1784   -1.2471    1.2636 H   0  0  0  0  0  0  0  0  0  0  0  0
    1.0489   -1.9630   -0.1970 H   0  0  0  0  0  0  0  0  0  0  0  0
    1.2399    0.4854   -0.9389 H   0  0  0  0  0  0  0  0  0  0  0  0
    4.0995    1.0698    1.7833 H   0  0  0  0  0  0  0  0  0  0  0  0
   -1.1309    2.2351    0.8532 H   0  0  0  0  0  0  0  0  0  0  0  0
   -0.5013    2.7870   -1.2116 H   0  0  0  0  0  0  0  0  0  0  0  0
   -1.6269   -0.1172    1.3104 H   0  0  0  0  0  0  0  0  0  0  0  0
   -3.5116    0.0990    0.2096 H   0  0  0  0  0  0  0  0  0  0  0  0
  1  2  1  0
  2  3  1  0
  3  4  1  0
  4  5  1  0
  5  6  2  0
  5  7  1  0
  4  8  1  0
  8  9  1  0
  9 10  1  0
  9 11  1  0
 11 12  1  0
 11  2  1  0
  1 13  1  0
  1 14  1  0
  2 15  1  6
  3 16  1  0
  3 17  1  0
  4 18  1  6
  7 19  1  0
  9 20  1  1
 10 21  1  0
 11 22  1  1
 12 23  1  0
M  END
$$$$

     RDKit          3D

 23 23  0  0  0  0  0  0  0  0999 V2000
   -2.0672   -1.6963    0.4942 N   0  0  0  0  0  0  0  0  0  0  0  0
   -1.1251   -0.8222   -0.1432 C   0  0  2  0  0  0  0  0  0  0  0  0
    0.3126   -1.2514    0.0488 C   0  0  0  0  0  0  0  0  0  0  0  0
    1.1460   -0.3551   -0.8524 C   0  0  2  0  0  0  0  0  0  0  0  0
    2.5206   -0.2635   -0.2925 C   0  0  0  0  0  0  0  0  0  0  0  0
    3.1828   -1.2939   -0.0314 O   0  0  0  0  0  0  0  0  0  0  0  0
    3.1146    0.9573   -0.0412 O   0  0  0  0  0  0  0  0  0  0  0  0
    0.5767    0.8708   -1.0743 O   0  0  0  0  0  0  0  0  0  0  0  0
   -0.0777    1.3979    0.0122 C   0  0  1  0  0  0  0  0  0  0  0  0
   -0.5882    2.6436   -0.3403 O   0  0  0  0  0  0  0  0  0  0  0  0
   -1.2536    0.5571    0.4705 C   0  0  1  0  0  0  0  0  0  0  0  0
   -2.4682    1.0952    0.0870 O   0  0  0  0  0  0  0  0  0  0  0  0
   -2.4456   -2.4378   -0.1154 H   0  0  0  0  0  0  0  0  0  0  0  0
   -1.7908   -2.0123    1.4412 H   0  0  0  0  0  0  0  0  0  0  0  0
   -1.3518   -0.7926   -1.2130 H   0  0  0  0  0  0  0  0  0  0  0  0
    0.6017   -1.1611    1.1044 H   0  0  0  0  0  0  0  0  0  0  0  0
    0.3932   -2.3240   -0.2587 H   0  0  0  0  0  0  0  0  0  0  0  0
    1.2119   -0.8752   -1.8434 H   0  0  0  0  0  0  0  0  0  0  0  0
    3.8123    1.1017    0.7038 H   0  0  0  0  0  0  0  0  0  0  0  0
    0.6218    1.5331    0.8664 H   0  0  0  0  0  0  0  0  0  0  0  0
   -0.4489    2.8606   -1.2979 H   0  0  0  0  0  0  0  0  0  0  0  0
   -1.2126    0.4222    1.5737 H   0  0  0  0  0  0  0  0  0  0  0  0
   -2.6645    1.8460    0.7015 H   0  0  0  0  0  0  0  0  0  0  0  0
  1  2  1  0
  2  3  1  0
  3  4  1  0
  4  5  1  0
  5  6  2  0
  5  7  1  0
  4  8  1  0
  8  9  1  0
  9 10  1  0
  9 11  1  0
 11 12  1  0
 11  2  1  0
  1 13  1  0
  1 14  1  0
  2 15  1  6
  3 16  1  0
  3 17  1  0
  4 18  1  6
  7 19  1  0
  9 20  1  1
 10 21  1  0
 11 22  1  1
 12 23  1  0
M  END
$$$$

     RDKit          3D

 23 23  0  0  0  0  0  0  0  0999 V2000
    0.9546    2.2782   -0.1851 N   0  0  0  0  0  0  0  0  0  0  0  0
    0.6833    0.9629   -0.7786 C   0  0  2  0  0  0  0  0  0  0  0  0
   -0.7723    0.7002   -0.6327 C   0  0  0  0  0  0  0  0  0  0  0  0
   -1.1203   -0.6949   -0.2267 C   0  0  2  0  0  0  0  0  0  0  0  0
   -2.5486   -0.7122    0.1658 C   0  0  0  0  0  0  0  0  0  0  0  0
   -2.8616   -1.2130    1.2706 O   0  0  0  0  0  0  0  0  0  0  0  0
   -3.5576   -0.1989   -0.6341 O   0  0  0  0  0  0  0  0  0  0  0  0
   -0.3709   -1.2558    0.7358 O   0  0  0  0  0  0  0  0  0  0  0  0
    0.8510   -0.7419    1.0011 C   0  0  1  0  0  0  0  0  0  0  0  0
    1.6773   -1.8104    1.4266 O   0  0  0  0  0  0  0  0  0  0  0  0
    1.5545   -0.0812   -0.1301 C   0  0  1  0  0  0  0  0  0  0  0  0
    2.0192   -1.0028   -1.0594 O   0  0  0  0  0  0  0  0  0  0  0  0
    1.8372    2.2525    0.3602 H   0  0  0  0  0  0  0  0  0  0  0  0
    0.1572    2.5952    0.4016 H   0  0  0  0  0  0  0  0  0  0  0  0
    1.0114    1.0415   -1.8394 H   0  0  0  0  0  0  0  0  0  0  0  0
   -1.2440    0.8737   -1.6448 H   0  0  0  0  0  0  0  0  0  0  0  0
   -1.2971    1.4041    0.0471 H   0  0  0  0  0  0  0  0  0  0  0  0
   -1.0276   -1.3279   -1.1581 H   0  0  0  0  0  0  0  0  0  0  0  0
   -4.5062   -0.5889   -0.5480 H   0  0  0  0  0  0  0  0  0  0  0  0
    0.7778   -0.0604    1.8788 H   0  0  0  0  0  0  0  0  0  0  0  0
    2.4442   -1.4893    1.9529 H   0  0  0  0  0  0  0  0  0  0  0  0
    2.4544    0.4481    0.2998 H   0  0  0  0  0  0  0  0  0  0  0  0
    2.8840   -1.3788   -0.7032 H   0  0  0  0  0  0  0  0  0  0  0  0
  1  2  1  0
  2  3  1  0
  3  4  1  0
  4  5  1  0
  5  6  2  0
  5  7  1  0
  4  8  1  0
  8  9  1  0
  9 10  1  0
  9 11  1  0
 11 12  1  0
 11  2  1  0
  1 13  1  0
  1 14  1  0
  2 15  1  6
  3 16  1  0
  3 17  1  0
  4 18  1  6
  7 19  1  0
  9 20  1  1
 10 21  1  0
 11 22  1  1
 12 23  1  0
M  END
$$$$

     RDKit          3D

 23 23  0  0  0  0  0  0  0  0999 V2000
   -1.7598    1.7806   -0.6215 N   0  0  0  0  0  0  0  0  0  0  0  0
   -1.0470    0.8246    0.2351 C   0  0  2  0  0  0  0  0  0  0  0  0
    0.4175    1.0868    0.1577 C   0  0  0  0  0  0  0  0  0  0  0  0
    1.1653   -0.2512    0.0788 C   0  0  2  0  0  0  0  0  0  0  0  0
    2.6080    0.0346   -0.0002 C   0  0  0  0  0  0  0  0  0  0  0  0
    3.2336   -0.2652   -1.0369 O   0  0  0  0  0  0  0  0  0  0  0  0
    3.2757    0.6232    1.0432 O   0  0  0  0  0  0  0  0  0  0  0  0
    0.6840   -0.8494   -1.0850 O   0  0  0  0  0  0  0  0  0  0  0  0
   -0.5306   -1.4163   -0.7896 C   0  0  1  0  0  0  0  0  0  0  0  0
   -0.2599   -2.6404   -0.1349 O   0  0  0  0  0  0  0  0  0  0  0  0
   -1.4655   -0.5710   -0.0193 C   0  0  1  0  0  0  0  0  0  0  0  0
   -1.7574   -1.2372    1.1931 O   0  0  0  0  0  0  0  0  0  0  0  0
   -2.0485    2.6308   -0.0949 H   0  0  0  0  0  0  0  0  0  0  0  0
   -1.1264    2.0006   -1.4092 H   0  0  0  0  0  0  0  0  0  0  0  0
   -1.3737    1.0945    1.2824 H   0  0  0  0  0  0  0  0  0  0  0  0
    0.8159    1.6899    0.9809 H   0  0  0  0  0  0  0  0  0  0  0  0
    0.6232    1.5809   -0.8339 H   0  0  0  0  0  0  0  0  0  0  0  0
    0.9297   -0.8785    0.9652 H   0  0  0  0  0  0  0  0  0  0  0  0
    4.2436    0.9304    1.0115 H   0  0  0  0  0  0  0  0  0  0  0  0
   -0.9867   -1.7308   -1.7742 H   0  0  0  0  0  0  0  0  0  0  0  0
   -0.9481   -3.3173   -0.3714 H   0  0  0  0  0  0  0  0  0  0  0  0
   -2.4597   -0.5360   -0.5556 H   0  0  0  0  0  0  0  0  0  0  0  0
   -2.2334   -0.5838    1.7790 H   0  0  0  0  0  0  0  0  0  0  0  0
  1  2  1  0
  2  3  1  0
  3  4  1  0
  4  5  1  0
  5  6  2  0
  5  7  1  0
  4  8  1  0
  8  9  1  0
  9 10  1  0
  9 11  1  0
 11 12  1  0
 11  2  1  0
  1 13  1  0
  1 14  1  0
  2 15  1  1
  3 16  1  0
  3 17  1  0
  4 18  1  1
  7 19  1  0
  9 20  1  6
 10 21  1  0
 11 22  1  6
 12 23  1  0
M  END
$$$$

     RDKit          3D

 23 23  0  0  0  0  0  0  0  0999 V2000
   -1.3965   -2.1309   -0.6982 N   0  0  0  0  0  0  0  0  0  0  0  0
   -0.7589   -0.8677   -0.5639 C   0  0  2  0  0  0  0  0  0  0  0  0
    0.7223   -0.9931   -0.1963 C   0  0  0  0  0  0  0  0  0  0  0  0
    1.2954    0.3835   -0.3445 C   0  0  2  0  0  0  0  0  0  0  0  0
    2.5221    0.5259    0.4988 C   0  0  0  0  0  0  0  0  0  0  0  0
    2.7036    1.4964    1.2779 O   0  0  0  0  0  0  0  0  0  0  0  0
    3.5071   -0.4413    0.4306 O   0  0  0  0  0  0  0  0  0  0  0  0
    0.4814    1.4149   -0.1282 O   0  0  0  0  0  0  0  0  0  0  0  0
   -0.6806    1.2972    0.5129 C   0  0  1  0  0  0  0  0  0  0  0  0
   -1.6083    2.1615   -0.1204 O   0  0  0  0  0  0  0  0  0  0  0  0
   -1.3231   -0.0364    0.5843 C   0  0  1  0  0  0  0  0  0  0  0  0
   -2.7094    0.0337    0.4533 O   0  0  0  0  0  0  0  0  0  0  0  0
   -1.4902   -2.4095   -1.7070 H   0  0  0  0  0  0  0  0  0  0  0  0
   -2.3078   -2.1722   -0.1945 H   0  0  0  0  0  0  0  0  0  0  0  0
   -0.8393   -0.2335   -1.4681 H   0  0  0  0  0  0  0  0  0  0  0  0
    1.1713   -1.7466   -0.8411 H   0  0  0  0  0  0  0  0  0  0  0  0
    0.8320   -1.2970    0.8621 H   0  0  0  0  0  0  0  0  0  0  0  0
    1.6710    0.4481   -1.4101 H   0  0  0  0  0  0  0  0  0  0  0  0
    4.4991   -0.2303    0.5680 H   0  0  0  0  0  0  0  0  0  0  0  0
   -0.5688    1.6963    1.5631 H   0  0  0  0  0  0  0  0  0  0  0  0
   -1.7688    2.9702    0.3890 H   0  0  0  0  0  0  0  0  0  0  0  0
   -1.0767   -0.5219    1.5618 H   0  0  0  0  0  0  0  0  0  0  0  0
   -2.8768    0.6527   -0.3213 H   0  0  0  0  0  0  0  0  0  0  0  0
  1  2  1  0
  2  3  1  0
  3  4  1  0
  4  5  1  0
  5  6  2  0
  5  7  1  0
  4  8  1  0
  8  9  1  0
  9 10  1  0
  9 11  1  0
 11 12  1  0
 11  2  1  0
  1 13  1  0
  1 14  1  0
  2 15  1  6
  3 16  1  0
  3 17  1  0
  4 18  1  6
  7 19  1  0
  9 20  1  1
 10 21  1  0
 11 22  1  1
 12 23  1  0
M  END
$$$$

     RDKit          3D

 23 23  0  0  0  0  0  0  0  0999 V2000
    1.4229   -2.2428    0.4590 N   0  0  0  0  0  0  0  0  0  0  0  0
    0.7589   -0.9890    0.5328 C   0  0  2  0  0  0  0  0  0  0  0  0
   -0.5275   -0.9507   -0.3065 C   0  0  0  0  0  0  0  0  0  0  0  0
   -1.3244    0.1888    0.3139 C   0  0  2  0  0  0  0  0  0  0  0  0
   -2.6176    0.3914   -0.3327 C   0  0  0  0  0  0  0  0  0  0  0  0
   -2.8994    1.5427   -0.7471 O   0  0  0  0  0  0  0  0  0  0  0  0
   -3.5515   -0.6129   -0.5154 O   0  0  0  0  0  0  0  0  0  0  0  0
   -0.5428    1.3042    0.3990 O   0  0  0  0  0  0  0  0  0  0  0  0
    0.6148    1.2812   -0.3286 C   0  0  1  0  0  0  0  0  0  0  0  0
    1.2835    2.5023   -0.0821 O   0  0  0  0  0  0  0  0  0  0  0  0
    1.5749    0.1866    0.0911 C   0  0  1  0  0  0  0  0  0  0  0  0
    2.4744    0.6267    1.0411 O   0  0  0  0  0  0  0  0  0  0  0  0
    1.8069   -2.5541    1.3784 H   0  0  0  0  0  0  0  0  0  0  0  0
    2.0448   -2.3838   -0.3420 H   0  0  0  0  0  0  0  0  0  0  0  0
    0.4767   -0.8064    1.6075 H   0  0  0  0  0  0  0  0  0  0  0  0
   -1.0596   -1.9039   -0.2863 H   0  0  0  0  0  0  0  0  0  0  0  0
   -0.2030   -0.6889   -1.3385 H   0  0  0  0  0  0  0  0  0  0  0  0
   -1.5343   -0.1495    1.3714 H   0  0  0  0  0  0  0  0  0  0  0  0
   -4.1080   -0.6504   -1.3743 H   0  0  0  0  0  0  0  0  0  0  0  0
    0.4654    1.2505   -1.4282 H   0  0  0  0  0  0  0  0  0  0  0  0
    0.5942    3.2032   -0.2178 H   0  0  0  0  0  0  0  0  0  0  0  0
    2.1510   -0.1299   -0.8218 H   0  0  0  0  0  0  0  0  0  0  0  0
    2.6998    1.5846    0.9272 H   0  0  0  0  0  0  0  0  0  0  0  0
  1  2  1  0
  2  3  1  0
  3  4  1  0
  4  5  1  0
  5  6  2  0
  5  7  1  0
  4  8  1  0
  8  9  1  0
  9 10  1  0
  9 11  1  0
 11 12  1  0
 11  2  1  0
  1 13  1  0
  1 14  1  0
  2 15  1  1
  3 16  1  0
  3 17  1  0
  4 18  1  1
  7 19  1  0
  9 20  1  6
 10 21  1  0
 11 22  1  6
 12 23  1  0
M  END
$$$$
