
     RDKit          3D

 26 27  0  0  0  0  0  0  0  0999 V2000
   -1.8734   -2.5916    0.3431 N   0  0  0  0  0  0  0  0  0  0  0  0
   -1.8982   -1.2370    0.8010 C   0  0  0  0  0  0  0  0  0  0  0  0
   -0.7974   -0.4393    0.2234 C   0  0  1  0  0  0  0  0  0  0  0  0
   -0.9352   -0.4495   -1.1876 O   0  0  0  0  0  0  0  0  0  0  0  0
    0.2330    0.3127   -1.4552 C   0  0  1  0  0  0  0  0  0  0  0  0
   -0.1361    1.5914   -0.7396 C   0  0  1  0  0  0  0  0  0  0  0  0
   -1.0998    2.2435   -1.4777 O   0  0  0  0  0  0  0  0  0  0  0  0
   -0.8326    1.0219    0.5063 C   0  0  2  0  0  0  0  0  0  0  0  0
   -0.1381    1.3989    1.6313 O   0  0  0  0  0  0  0  0  0  0  0  0
    1.2341   -0.5065   -0.7074 C   0  0  1  0  0  0  0  0  0  0  0  0
    2.4519    0.2482   -0.2722 C   0  0  0  0  0  0  0  0  0  0  0  0
    3.2127   -0.6407    0.5232 O   0  0  0  0  0  0  0  0  0  0  0  0
    0.4657   -0.9417    0.3966 O   0  0  0  0  0  0  0  0  0  0  0  0
   -1.1569   -3.1453    0.8683 H   0  0  0  0  0  0  0  0  0  0  0  0
   -1.6947   -2.7134   -0.6596 H   0  0  0  0  0  0  0  0  0  0  0  0
   -2.8610   -0.7600    0.5377 H   0  0  0  0  0  0  0  0  0  0  0  0
   -1.8207   -1.2157    1.9041 H   0  0  0  0  0  0  0  0  0  0  0  0
    0.3761    0.4021   -2.5169 H   0  0  0  0  0  0  0  0  0  0  0  0
    0.7110    2.2174   -0.4724 H   0  0  0  0  0  0  0  0  0  0  0  0
   -1.9835    2.2737   -1.0228 H   0  0  0  0  0  0  0  0  0  0  0  0
   -1.8646    1.4188    0.6020 H   0  0  0  0  0  0  0  0  0  0  0  0
   -0.2742    2.3408    1.8176 H   0  0  0  0  0  0  0  0  0  0  0  0
    1.5484   -1.3451   -1.3466 H   0  0  0  0  0  0  0  0  0  0  0  0
    2.2600    1.1468    0.3104 H   0  0  0  0  0  0  0  0  0  0  0  0
    3.0526    0.4992   -1.1452 H   0  0  0  0  0  0  0  0  0  0  0  0
    3.8210   -1.1296   -0.0696 H   0  0  0  0  0  0  0  0  0  0  0  0
  1  2  1  0
  3  2  1  1
  3  4  1  0
  4  5  1  0
  5  6  1  0
  6  7  1  0
  6  8  1  0
  8  9  1  0
  5 10  1  0
 10 11  1  0
 11 12  1  0
 10 13  1  0
  8  3  1  0
 13  3  1  0
  1 14  1  0
  1 15  1  0
  2 16  1  0
  2 17  1  0
  5 18  1  6
  6 19  1  1
  7 20  1  0
  8 21  1  1
  9 22  1  0
 10 23  1  6
 11 24  1  0
 11 25  1  0
 12 26  1  0
M  END
$$$$

     RDKit          3D

 26 27  0  0  0  0  0  0  0  0999 V2000
    2.4395    2.0659   -0.7301 N   0  0  0  0  0  0  0  0  0  0  0  0
    2.3105    0.7002   -0.3299 C   0  0  0  0  0  0  0  0  0  0  0  0
    0.9143    0.2326   -0.1631 C   0  0  1  0  0  0  0  0  0  0  0  0
    0.1606    0.3402   -1.3608 O   0  0  0  0  0  0  0  0  0  0  0  0
   -1.0746   -0.0717   -0.7928 C   0  0  1  0  0  0  0  0  0  0  0  0
   -0.6885   -1.4527   -0.3003 C   0  0  1  0  0  0  0  0  0  0  0  0
   -0.8811   -2.4252   -1.2535 O   0  0  0  0  0  0  0  0  0  0  0  0
    0.7968   -1.2629    0.0354 C   0  0  2  0  0  0  0  0  0  0  0  0
    1.1016   -1.6762    1.3041 O   0  0  0  0  0  0  0  0  0  0  0  0
   -1.1482    0.9087    0.3314 C   0  0  1  0  0  0  0  0  0  0  0  0
   -2.1270    0.5646    1.4000 C   0  0  0  0  0  0  0  0  0  0  0  0
   -3.3999    0.5635    0.8285 O   0  0  0  0  0  0  0  0  0  0  0  0
    0.1725    0.9434    0.7758 O   0  0  0  0  0  0  0  0  0  0  0  0
    3.4662    2.2343   -0.9356 H   0  0  0  0  0  0  0  0  0  0  0  0
    2.1861    2.7099    0.0399 H   0  0  0  0  0  0  0  0  0  0  0  0
    2.8312    0.0722   -1.0725 H   0  0  0  0  0  0  0  0  0  0  0  0
    2.8493    0.5647    0.6293 H   0  0  0  0  0  0  0  0  0  0  0  0
   -1.8885   -0.0562   -1.4970 H   0  0  0  0  0  0  0  0  0  0  0  0
   -1.1818   -1.7415    0.6295 H   0  0  0  0  0  0  0  0  0  0  0  0
   -1.3792   -3.2064   -0.8589 H   0  0  0  0  0  0  0  0  0  0  0  0
    1.4033   -1.7398   -0.7617 H   0  0  0  0  0  0  0  0  0  0  0  0
    2.0100   -2.1156    1.2589 H   0  0  0  0  0  0  0  0  0  0  0  0
   -1.4088    1.9023   -0.0727 H   0  0  0  0  0  0  0  0  0  0  0  0
   -2.1220    1.3871    2.1435 H   0  0  0  0  0  0  0  0  0  0  0  0
   -1.9446   -0.3687    1.9299 H   0  0  0  0  0  0  0  0  0  0  0  0
   -3.3975    0.9275   -0.0998 H   0  0  0  0  0  0  0  0  0  0  0  0
  1  2  1  0
  3  2  1  6
  3  4  1  0
  4  5  1  0
  5  6  1  0
  6  7  1  0
  6  8  1  0
  8  9  1  0
  5 10  1  0
 10 11  1  0
 11 12  1  0
 10 13  1  0
  8  3  1  0
 13  3  1  0
  1 14  1  0
  1 15  1  0
  2 16  1  0
  2 17  1  0
  5 18  1  6
  6 19  1  1
  7 20  1  0
  8 21  1  6
  9 22  1  0
 10 23  1  6
 11 24  1  0
 11 25  1  0
 12 26  1  0
M  END
$$$$

     RDKit          3D

 26 27  0  0  0  0  0  0  0  0999 V2000
   -2.3943   -2.0642    0.0216 N   0  0  0  0  0  0  0  0  0  0  0  0
   -1.7104   -1.4714   -1.0832 C   0  0  0  0  0  0  0  0  0  0  0  0
   -0.6725   -0.5489   -0.5913 C   0  0  1  0  0  0  0  0  0  0  0  0
    0.0516    0.0798   -1.6371 O   0  0  0  0  0  0  0  0  0  0  0  0
    0.9766    0.7349   -0.7761 C   0  0  1  0  0  0  0  0  0  0  0  0
    0.0913    1.4942    0.1719 C   0  0  1  0  0  0  0  0  0  0  0  0
   -0.0829    2.8197   -0.1941 O   0  0  0  0  0  0  0  0  0  0  0  0
   -1.2111    0.7065    0.0635 C   0  0  2  0  0  0  0  0  0  0  0  0
   -1.8121    0.4916    1.2668 O   0  0  0  0  0  0  0  0  0  0  0  0
    1.4912   -0.5063   -0.0865 C   0  0  1  0  0  0  0  0  0  0  0  0
    2.3903   -0.2578    1.0545 C   0  0  0  0  0  0  0  0  0  0  0  0
    3.5458    0.3773    0.5396 O   0  0  0  0  0  0  0  0  0  0  0  0
    0.2878   -1.1320    0.2312 O   0  0  0  0  0  0  0  0  0  0  0  0
   -1.7683   -2.1552    0.8432 H   0  0  0  0  0  0  0  0  0  0  0  0
   -3.2436   -1.5287    0.3083 H   0  0  0  0  0  0  0  0  0  0  0  0
   -2.4317   -0.9039   -1.6945 H   0  0  0  0  0  0  0  0  0  0  0  0
   -1.2298   -2.2716   -1.6720 H   0  0  0  0  0  0  0  0  0  0  0  0
    1.7095    1.3101   -1.3011 H   0  0  0  0  0  0  0  0  0  0  0  0
    0.3856    1.4651    1.2195 H   0  0  0  0  0  0  0  0  0  0  0  0
   -0.3129    3.3495    0.6158 H   0  0  0  0  0  0  0  0  0  0  0  0
   -1.8342    1.2420   -0.6768 H   0  0  0  0  0  0  0  0  0  0  0  0
   -2.7876    0.7257    1.2170 H   0  0  0  0  0  0  0  0  0  0  0  0
    2.0220   -1.1625   -0.8293 H   0  0  0  0  0  0  0  0  0  0  0  0
    2.0090    0.4079    1.8345 H   0  0  0  0  0  0  0  0  0  0  0  0
    2.7423   -1.1973    1.4907 H   0  0  0  0  0  0  0  0  0  0  0  0
    3.7883   -0.0045   -0.3361 H   0  0  0  0  0  0  0  0  0  0  0  0
  1  2  1  0
  3  2  1  6
  3  4  1  0
  4  5  1  0
  5  6  1  0
  6  7  1  0
  6  8  1  0
  8  9  1  0
  5 10  1  0
 10 11  1  0
 11 12  1  0
 10 13  1  0
  8  3  1  0
 13  3  1  0
  1 14  1  0
  1 15  1  0
  2 16  1  0
  2 17  1  0
  5 18  1  6
  6 19  1  1
  7 20  1  0
  8 21  1  6
  9 22  1  0
 10 23  1  6
 11 24  1  0
 11 25  1  0
 12 26  1  0
M  END
$$$$

     RDKit          3D

 26 27  0  0  0  0  0  0  0  0999 V2000
   -2.4756    2.0616    0.7550 N   0  0  0  0  0  0  0  0  0  0  0  0
   -2.3906    0.6907    0.2994 C   0  0  0  0  0  0  0  0  0  0  0  0
   -0.9842    0.2490    0.3800 C   0  0  1  0  0  0  0  0  0  0  0  0
   -0.4655    0.3106    1.6989 O   0  0  0  0  0  0  0  0  0  0  0  0
    0.8588   -0.0721    1.3427 C   0  0  1  0  0  0  0  0  0  0  0  0
    0.6267   -1.4068    0.7053 C   0  0  1  0  0  0  0  0  0  0  0  0
    0.6500   -2.4206    1.6573 O   0  0  0  0  0  0  0  0  0  0  0  0
   -0.7753   -1.2291    0.1246 C   0  0  2  0  0  0  0  0  0  0  0  0
   -0.8424   -1.5733   -1.1994 O   0  0  0  0  0  0  0  0  0  0  0  0
    1.1218    0.9827    0.3039 C   0  0  1  0  0  0  0  0  0  0  0  0
    2.2710    0.6921   -0.6088 C   0  0  0  0  0  0  0  0  0  0  0  0
    3.4685    0.6518    0.0623 O   0  0  0  0  0  0  0  0  0  0  0  0
   -0.0948    1.0185   -0.3779 O   0  0  0  0  0  0  0  0  0  0  0  0
   -2.7265    2.7291   -0.0222 H   0  0  0  0  0  0  0  0  0  0  0  0
   -3.0730    2.1886    1.5895 H   0  0  0  0  0  0  0  0  0  0  0  0
   -2.7208    0.6658   -0.7381 H   0  0  0  0  0  0  0  0  0  0  0  0
   -3.0176    0.0040    0.8769 H   0  0  0  0  0  0  0  0  0  0  0  0
    1.5297   -0.0660    2.1861 H   0  0  0  0  0  0  0  0  0  0  0  0
    1.2865   -1.6412   -0.1497 H   0  0  0  0  0  0  0  0  0  0  0  0
    1.4605   -2.9835    1.4540 H   0  0  0  0  0  0  0  0  0  0  0  0
   -1.5019   -1.7685    0.7683 H   0  0  0  0  0  0  0  0  0  0  0  0
   -1.4717   -2.3554   -1.2888 H   0  0  0  0  0  0  0  0  0  0  0  0
    1.2679    1.9409    0.8510 H   0  0  0  0  0  0  0  0  0  0  0  0
    2.0717   -0.1522   -1.2781 H   0  0  0  0  0  0  0  0  0  0  0  0
    2.3408    1.5879   -1.2963 H   0  0  0  0  0  0  0  0  0  0  0  0
    3.5860   -0.1044    0.6691 H   0  0  0  0  0  0  0  0  0  0  0  0
  1  2  1  0
  3  2  1  1
  3  4  1  0
  4  5  1  0
  5  6  1  0
  6  7  1  0
  6  8  1  0
  8  9  1  0
  5 10  1  0
 10 11  1  0
 11 12  1  0
 10 13  1  0
  8  3  1  0
 13  3  1  0
  1 14  1  0
  1 15  1  0
  2 16  1  0
  2 17  1  0
  5 18  1  1
  6 19  1  6
  7 20  1  0
  8 21  1  1
  9 22  1  0
 10 23  1  1
 11 24  1  0
 11 25  1  0
 12 26  1  0
M  END
$$$$

     RDKit          3D

 26 27  0  0  0  0  0  0  0  0999 V2000
    1.9890    2.4733   -0.1456 N   0  0  0  0  0  0  0  0  0  0  0  0
    2.1012    1.1710    0.5354 C   0  0  0  0  0  0  0  0  0  0  0  0
    0.9247    0.3788    0.1436 C   0  0  1  0  0  0  0  0  0  0  0  0
    0.8497    0.1686   -1.2579 O   0  0  0  0  0  0  0  0  0  0  0  0
   -0.4449   -0.4498   -1.2282 C   0  0  1  0  0  0  0  0  0  0  0  0
   -0.2419   -1.5684   -0.2869 C   0  0  1  0  0  0  0  0  0  0  0  0
    0.0824   -2.7744   -0.9050 O   0  0  0  0  0  0  0  0  0  0  0  0
    0.9416   -1.0753    0.5678 C   0  0  2  0  0  0  0  0  0  0  0  0
    0.7274   -1.2570    1.9103 O   0  0  0  0  0  0  0  0  0  0  0  0
   -1.1612    0.6906   -0.5650 C   0  0  1  0  0  0  0  0  0  0  0  0
   -2.5795    0.4888   -0.2200 C   0  0  0  0  0  0  0  0  0  0  0  0
   -2.9006   -0.5435    0.6071 O   0  0  0  0  0  0  0  0  0  0  0  0
   -0.2977    0.9204    0.5151 O   0  0  0  0  0  0  0  0  0  0  0  0
    2.8964    2.9947   -0.0939 H   0  0  0  0  0  0  0  0  0  0  0  0
    1.8302    2.3073   -1.1758 H   0  0  0  0  0  0  0  0  0  0  0  0
    2.1870    1.4031    1.5985 H   0  0  0  0  0  0  0  0  0  0  0  0
    3.0614    0.7383    0.2016 H   0  0  0  0  0  0  0  0  0  0  0  0
   -0.7846   -0.6943   -2.2249 H   0  0  0  0  0  0  0  0  0  0  0  0
   -1.0345   -1.7813    0.4326 H   0  0  0  0  0  0  0  0  0  0  0  0
    0.1964   -3.4343   -0.1539 H   0  0  0  0  0  0  0  0  0  0  0  0
    1.8453   -1.5939    0.1788 H   0  0  0  0  0  0  0  0  0  0  0  0
   -0.0947   -1.7989    2.1040 H   0  0  0  0  0  0  0  0  0  0  0  0
   -1.0060    1.5977   -1.2200 H   0  0  0  0  0  0  0  0  0  0  0  0
   -2.9295    1.4468    0.2759 H   0  0  0  0  0  0  0  0  0  0  0  0
   -3.1911    0.4803   -1.1740 H   0  0  0  0  0  0  0  0  0  0  0  0
   -2.9665   -0.2886    1.5803 H   0  0  0  0  0  0  0  0  0  0  0  0
  1  2  1  0
  3  2  1  6
  3  4  1  0
  4  5  1  0
  5  6  1  0
  6  7  1  0
  6  8  1  0
  8  9  1  0
  5 10  1  0
 10 11  1  0
 11 12  1  0
 10 13  1  0
  8  3  1  0
 13  3  1  0
  1 14  1  0
  1 15  1  0
  2 16  1  0
  2 17  1  0
  5 18  1  6
  6 19  1  1
  7 20  1  0
  8 21  1  6
  9 22  1  0
 10 23  1  6
 11 24  1  0
 11 25  1  0
 12 26  1  0
M  END
$$$$

     RDKit          3D

 26 27  0  0  0  0  0  0  0  0999 V2000
   -1.9472   -2.2354   -1.2344 N   0  0  0  0  0  0  0  0  0  0  0  0
   -1.2209   -1.1645   -1.8301 C   0  0  0  0  0  0  0  0  0  0  0  0
   -0.4288   -0.3444   -0.8797 C   0  0  1  0  0  0  0  0  0  0  0  0
    0.2682    0.7002   -1.5300 O   0  0  0  0  0  0  0  0  0  0  0  0
    0.9615    1.1606   -0.3765 C   0  0  1  0  0  0  0  0  0  0  0  0
   -0.2185    1.5458    0.4829 C   0  0  1  0  0  0  0  0  0  0  0  0
   -0.6692    2.7926    0.0581 O   0  0  0  0  0  0  0  0  0  0  0  0
   -1.2369    0.4599    0.0977 C   0  0  2  0  0  0  0  0  0  0  0  0
   -1.6638   -0.2541    1.1935 O   0  0  0  0  0  0  0  0  0  0  0  0
    1.5906   -0.1324    0.0518 C   0  0  1  0  0  0  0  0  0  0  0  0
    2.1022   -0.1677    1.4435 C   0  0  0  0  0  0  0  0  0  0  0  0
    2.5690   -1.4526    1.7173 O   0  0  0  0  0  0  0  0  0  0  0  0
    0.5325   -1.0373   -0.1662 O   0  0  0  0  0  0  0  0  0  0  0  0
   -2.2766   -2.0427   -0.2579 H   0  0  0  0  0  0  0  0  0  0  0  0
   -2.8195   -2.4094   -1.7950 H   0  0  0  0  0  0  0  0  0  0  0  0
   -1.9453   -0.4995   -2.3430 H   0  0  0  0  0  0  0  0  0  0  0  0
   -0.5447   -1.5500   -2.6101 H   0  0  0  0  0  0  0  0  0  0  0  0
    1.6478    1.9625   -0.5946 H   0  0  0  0  0  0  0  0  0  0  0  0
   -0.0353    1.5055    1.5619 H   0  0  0  0  0  0  0  0  0  0  0  0
   -1.2640    3.1902    0.7359 H   0  0  0  0  0  0  0  0  0  0  0  0
   -2.0840    0.9509   -0.4539 H   0  0  0  0  0  0  0  0  0  0  0  0
   -1.4962    0.2782    2.0181 H   0  0  0  0  0  0  0  0  0  0  0  0
    2.3501   -0.3914   -0.7163 H   0  0  0  0  0  0  0  0  0  0  0  0
    1.3071    0.0961    2.1434 H   0  0  0  0  0  0  0  0  0  0  0  0
    2.9638    0.5204    1.5122 H   0  0  0  0  0  0  0  0  0  0  0  0
    3.5582   -1.4816    1.7716 H   0  0  0  0  0  0  0  0  0  0  0  0
  1  2  1  0
  3  2  1  6
  3  4  1  0
  4  5  1  0
  5  6  1  0
  6  7  1  0
  6  8  1  0
  8  9  1  0
  5 10  1  0
 10 11  1  0
 11 12  1  0
 10 13  1  0
  8  3  1  0
 13  3  1  0
  1 14  1  0
  1 15  1  0
  2 16  1  0
  2 17  1  0
  5 18  1  6
  6 19  1  1
  7 20  1  0
  8 21  1  6
  9 22  1  0
 10 23  1  6
 11 24  1  0
 11 25  1  0
 12 26  1  0
M  END
$$$$

     RDKit          3D

 26 27  0  0  0  0  0  0  0  0999 V2000
   -3.2219   -0.2475   -0.5145 N   0  0  0  0  0  0  0  0  0  0  0  0
   -2.1538   -1.1416   -0.1713 C   0  0  0  0  0  0  0  0  0  0  0  0
   -0.8517   -0.4531   -0.1048 C   0  0  1  0  0  0  0  0  0  0  0  0
   -0.4821    0.1530   -1.3366 O   0  0  0  0  0  0  0  0  0  0  0  0
    0.8267    0.5159   -0.8996 C   0  0  1  0  0  0  0  0  0  0  0  0
    0.5814    1.2688    0.3697 C   0  0  1  0  0  0  0  0  0  0  0  0
    0.6594    2.6412    0.2231 O   0  0  0  0  0  0  0  0  0  0  0  0
   -0.8526    0.8264    0.7091 C   0  0  2  0  0  0  0  0  0  0  0  0
   -1.0427    0.6360    2.0421 O   0  0  0  0  0  0  0  0  0  0  0  0
    1.2534   -0.8886   -0.5749 C   0  0  1  0  0  0  0  0  0  0  0  0
    2.6187   -1.0759   -0.1113 C   0  0  0  0  0  0  0  0  0  0  0  0
    3.0178   -0.4536    1.0289 O   0  0  0  0  0  0  0  0  0  0  0  0
    0.2235   -1.2712    0.2426 O   0  0  0  0  0  0  0  0  0  0  0  0
   -4.0042   -0.8409   -0.9063 H   0  0  0  0  0  0  0  0  0  0  0  0
   -3.5842    0.1788    0.3669 H   0  0  0  0  0  0  0  0  0  0  0  0
   -2.0689   -1.9894   -0.8723 H   0  0  0  0  0  0  0  0  0  0  0  0
   -2.3876   -1.5790    0.8200 H   0  0  0  0  0  0  0  0  0  0  0  0
    1.3942    1.0176   -1.6539 H   0  0  0  0  0  0  0  0  0  0  0  0
    1.1684    0.9445    1.2371 H   0  0  0  0  0  0  0  0  0  0  0  0
    1.4983    2.9414    0.6862 H   0  0  0  0  0  0  0  0  0  0  0  0
   -1.5450    1.5476    0.2328 H   0  0  0  0  0  0  0  0  0  0  0  0
   -1.8019    1.2321    2.3304 H   0  0  0  0  0  0  0  0  0  0  0  0
    1.1314   -1.4900   -1.5267 H   0  0  0  0  0  0  0  0  0  0  0  0
    3.3121   -0.7274   -0.9342 H   0  0  0  0  0  0  0  0  0  0  0  0
    2.8289   -2.1589   -0.0150 H   0  0  0  0  0  0  0  0  0  0  0  0
    3.4823    0.4139    0.8640 H   0  0  0  0  0  0  0  0  0  0  0  0
  1  2  1  0
  3  2  1  6
  3  4  1  0
  4  5  1  0
  5  6  1  0
  6  7  1  0
  6  8  1  0
  8  9  1  0
  5 10  1  0
 10 11  1  0
 11 12  1  0
 10 13  1  0
  8  3  1  0
 13  3  1  0
  1 14  1  0
  1 15  1  0
  2 16  1  0
  2 17  1  0
  5 18  1  6
  6 19  1  1
  7 20  1  0
  8 21  1  6
  9 22  1  0
 10 23  1  6
 11 24  1  0
 11 25  1  0
 12 26  1  0
M  END
$$$$

     RDKit          3D

 26 27  0  0  0  0  0  0  0  0999 V2000
   -2.1913   -1.8110    1.6431 N   0  0  0  0  0  0  0  0  0  0  0  0
   -2.1524   -0.4120    1.2698 C   0  0  0  0  0  0  0  0  0  0  0  0
   -1.0015   -0.1254    0.3823 C   0  0  1  0  0  0  0  0  0  0  0  0
   -1.0432   -0.8753   -0.8223 O   0  0  0  0  0  0  0  0  0  0  0  0
    0.2324   -0.4398   -1.2866 C   0  0  1  0  0  0  0  0  0  0  0  0
    0.0520    1.0705   -1.3133 C   0  0  1  0  0  0  0  0  0  0  0  0
   -0.4329    1.4944   -2.5320 O   0  0  0  0  0  0  0  0  0  0  0  0
   -1.0252    1.2530   -0.2373 C   0  0  2  0  0  0  0  0  0  0  0  0
   -0.7263    2.2600    0.6400 O   0  0  0  0  0  0  0  0  0  0  0  0
    1.0322   -0.8928   -0.1023 C   0  0  1  0  0  0  0  0  0  0  0  0
    2.4423   -0.4103   -0.0879 C   0  0  0  0  0  0  0  0  0  0  0  0
    3.1032   -0.7626    1.0872 O   0  0  0  0  0  0  0  0  0  0  0  0
    0.2474   -0.3885    0.9400 O   0  0  0  0  0  0  0  0  0  0  0  0
   -1.5521   -2.0056    2.4448 H   0  0  0  0  0  0  0  0  0  0  0  0
   -1.8161   -2.3545    0.8261 H   0  0  0  0  0  0  0  0  0  0  0  0
   -2.0820    0.1711    2.2091 H   0  0  0  0  0  0  0  0  0  0  0  0
   -3.0877   -0.0839    0.7770 H   0  0  0  0  0  0  0  0  0  0  0  0
    0.5011   -0.8689   -2.2316 H   0  0  0  0  0  0  0  0  0  0  0  0
    0.9309    1.6317   -0.9868 H   0  0  0  0  0  0  0  0  0  0  0  0
   -0.0770    2.3794   -2.8207 H   0  0  0  0  0  0  0  0  0  0  0  0
   -1.9722    1.4352   -0.7381 H   0  0  0  0  0  0  0  0  0  0  0  0
    0.1939    2.2457    0.9580 H   0  0  0  0  0  0  0  0  0  0  0  0
    0.9725   -1.9940   -0.0413 H   0  0  0  0  0  0  0  0  0  0  0  0
    2.9747   -0.9554   -0.9080 H   0  0  0  0  0  0  0  0  0  0  0  0
    2.5659    0.6527   -0.2914 H   0  0  0  0  0  0  0  0  0  0  0  0
    3.9114   -0.2136    1.2221 H   0  0  0  0  0  0  0  0  0  0  0  0
  1  2  1  0
  3  2  1  1
  3  4  1  0
  4  5  1  0
  5  6  1  0
  6  7  1  0
  6  8  1  0
  8  9  1  0
  5 10  1  0
 10 11  1  0
 11 12  1  0
 10 13  1  0
  8  3  1  0
 13  3  1  0
  1 14  1  0
  1 15  1  0
  2 16  1  0
  2 17  1  0
  5 18  1  6
  6 19  1  1
  7 20  1  0
  8 21  1  6
  9 22  1  0
 10 23  1  1
 11 24  1  0
 11 25  1  0
 12 26  1  0
M  END
$$$$
