
     RDKit          3D

 26 25  0  0  0  0  0  0  0  0999 V2000
    4.8810    0.4934   -0.3162 C   0  0  0  0  0  0  0  0  0  0  0  0
    3.4852   -0.0234   -0.4922 C   0  0  0  0  0  0  0  0  0  0  0  0
    2.9104    0.0851   -1.5946 O   0  0  0  0  0  0  0  0  0  0  0  0
    2.7932   -0.6449    0.5919 N   0  0  0  0  0  0  0  0  0  0  0  0
    1.4543   -1.1546    0.4679 C   0  0  0  0  0  0  0  0  0  0  0  0
    0.4560   -0.1065    0.0896 C   0  0  0  0  0  0  0  0  0  0  0  0
   -0.8496   -0.6752   -0.0168 N   0  0  0  0  0  0  0  0  0  0  0  0
   -1.9760    0.1190   -0.3659 C   0  0  0  0  0  0  0  0  0  0  0  0
   -1.8679    1.3655   -0.5972 O   0  0  0  0  0  0  0  0  0  0  0  0
   -3.3066   -0.5341   -0.4597 C   0  0  0  0  0  0  0  0  0  0  0  0
   -4.3216    0.4356   -0.8251 N   0  0  0  0  0  0  0  0  0  0  0  0
   -4.5188    1.5393    0.0526 C   0  0  0  0  0  0  0  0  0  0  0  0
   -3.8497    1.6918    1.1139 O   0  0  0  0  0  0  0  0  0  0  0  0
    5.6348   -0.2608   -0.6008 H   0  0  0  0  0  0  0  0  0  0  0  0
    4.9853    1.4051   -0.9484 H   0  0  0  0  0  0  0  0  0  0  0  0
    5.0767    0.7918    0.7149 H   0  0  0  0  0  0  0  0  0  0  0  0
    3.3509   -0.6985    1.4957 H   0  0  0  0  0  0  0  0  0  0  0  0
    1.1586   -1.5346    1.4825 H   0  0  0  0  0  0  0  0  0  0  0  0
    1.4105   -1.9816   -0.2747 H   0  0  0  0  0  0  0  0  0  0  0  0
    0.4532    0.6565    0.9074 H   0  0  0  0  0  0  0  0  0  0  0  0
    0.7301    0.4444   -0.8320 H   0  0  0  0  0  0  0  0  0  0  0  0
   -1.0000   -1.6922    0.1614 H   0  0  0  0  0  0  0  0  0  0  0  0
   -3.6135   -0.9629    0.5367 H   0  0  0  0  0  0  0  0  0  0  0  0
   -3.2981   -1.3722   -1.2008 H   0  0  0  0  0  0  0  0  0  0  0  0
   -4.8980    0.3395   -1.7030 H   0  0  0  0  0  0  0  0  0  0  0  0
   -5.2802    2.2747   -0.2132 H   0  0  0  0  0  0  0  0  0  0  0  0
  1  2  1  0
  2  3  2  0
  2  4  1  0
  4  5  1  0
  5  6  1  0
  6  7  1  0
  7  8  1  0
  8  9  2  0
  8 10  1  0
 10 11  1  0
 11 12  1  0
 12 13  2  0
  1 14  1  0
  1 15  1  0
  1 16  1  0
  4 17  1  0
  5 18  1  0
  5 19  1  0
  6 20  1  0
  6 21  1  0
  7 22  1  0
 10 23  1  0
 10 24  1  0
 11 25  1  0
 12 26  1  0
M  END
$$$$

     RDKit          3D

 26 25  0  0  0  0  0  0  0  0999 V2000
    5.2370   -0.2640   -0.1561 C   0  0  0  0  0  0  0  0  0  0  0  0
    3.8603    0.0013    0.3376 C   0  0  0  0  0  0  0  0  0  0  0  0
    3.7292    0.5312    1.4788 O   0  0  0  0  0  0  0  0  0  0  0  0
    2.7138   -0.3247   -0.4369 N   0  0  0  0  0  0  0  0  0  0  0  0
    1.4154   -0.0438    0.0953 C   0  0  0  0  0  0  0  0  0  0  0  0
    0.2996   -0.4424   -0.8347 C   0  0  0  0  0  0  0  0  0  0  0  0
   -0.9853   -0.1327   -0.2399 N   0  0  0  0  0  0  0  0  0  0  0  0
   -2.2136   -0.3980   -0.8877 C   0  0  0  0  0  0  0  0  0  0  0  0
   -2.1742   -0.9292   -2.0366 O   0  0  0  0  0  0  0  0  0  0  0  0
   -3.5547   -0.1160   -0.3562 C   0  0  0  0  0  0  0  0  0  0  0  0
   -3.6041    0.4835    0.9399 N   0  0  0  0  0  0  0  0  0  0  0  0
   -4.8667    0.7822    1.5123 C   0  0  0  0  0  0  0  0  0  0  0  0
   -5.9236    0.5306    0.9044 O   0  0  0  0  0  0  0  0  0  0  0  0
    5.8767   -0.6592    0.6807 H   0  0  0  0  0  0  0  0  0  0  0  0
    5.7035    0.7094   -0.4416 H   0  0  0  0  0  0  0  0  0  0  0  0
    5.2548   -0.9039   -1.0406 H   0  0  0  0  0  0  0  0  0  0  0  0
    2.8793   -0.7614   -1.3738 H   0  0  0  0  0  0  0  0  0  0  0  0
    1.3064   -0.6661    1.0262 H   0  0  0  0  0  0  0  0  0  0  0  0
    1.3099    1.0088    0.4063 H   0  0  0  0  0  0  0  0  0  0  0  0
    0.3172   -1.5283   -1.0597 H   0  0  0  0  0  0  0  0  0  0  0  0
    0.4015    0.1474   -1.7718 H   0  0  0  0  0  0  0  0  0  0  0  0
   -0.9938    0.2976    0.6919 H   0  0  0  0  0  0  0  0  0  0  0  0
   -4.1997   -1.0502   -0.3585 H   0  0  0  0  0  0  0  0  0  0  0  0
   -4.1249    0.5814   -1.0489 H   0  0  0  0  0  0  0  0  0  0  0  0
   -2.7525    0.7045    1.4691 H   0  0  0  0  0  0  0  0  0  0  0  0
   -4.9121    1.2395    2.5005 H   0  0  0  0  0  0  0  0  0  0  0  0
  1  2  1  0
  2  3  2  0
  2  4  1  0
  4  5  1  0
  5  6  1  0
  6  7  1  0
  7  8  1  0
  8  9  2  0
  8 10  1  0
 10 11  1  0
 11 12  1  0
 12 13  2  0
  1 14  1  0
  1 15  1  0
  1 16  1  0
  4 17  1  0
  5 18  1  0
  5 19  1  0
  6 20  1  0
  6 21  1  0
  7 22  1  0
 10 23  1  0
 10 24  1  0
 11 25  1  0
 12 26  1  0
M  END
$$$$

     RDKit          3D

 26 25  0  0  0  0  0  0  0  0999 V2000
   -4.7977    0.4829    0.1967 C   0  0  0  0  0  0  0  0  0  0  0  0
   -3.3589    0.1929    0.5359 C   0  0  0  0  0  0  0  0  0  0  0  0
   -3.0453   -0.9768    0.8748 O   0  0  0  0  0  0  0  0  0  0  0  0
   -2.3747    1.2030    0.4786 N   0  0  0  0  0  0  0  0  0  0  0  0
   -0.9955    0.9907    0.7880 C   0  0  0  0  0  0  0  0  0  0  0  0
   -0.4166   -0.0382   -0.1276 C   0  0  0  0  0  0  0  0  0  0  0  0
    1.0038   -0.2667    0.1798 N   0  0  0  0  0  0  0  0  0  0  0  0
    1.7756   -1.2007   -0.5540 C   0  0  0  0  0  0  0  0  0  0  0  0
    1.1390   -1.8151   -1.4812 O   0  0  0  0  0  0  0  0  0  0  0  0
    3.1884   -1.5175   -0.3527 C   0  0  0  0  0  0  0  0  0  0  0  0
    3.8627   -0.7853    0.6680 N   0  0  0  0  0  0  0  0  0  0  0  0
    4.0176    0.6215    0.6220 C   0  0  0  0  0  0  0  0  0  0  0  0
    3.5683    1.2810   -0.3305 O   0  0  0  0  0  0  0  0  0  0  0  0
   -5.4558   -0.0794    0.8964 H   0  0  0  0  0  0  0  0  0  0  0  0
   -5.0246    0.0789   -0.8228 H   0  0  0  0  0  0  0  0  0  0  0  0
   -4.9862    1.5803    0.2602 H   0  0  0  0  0  0  0  0  0  0  0  0
   -2.7168    2.1635    0.1845 H   0  0  0  0  0  0  0  0  0  0  0  0
   -0.4296    1.9272    0.6469 H   0  0  0  0  0  0  0  0  0  0  0  0
   -0.8962    0.6880    1.8711 H   0  0  0  0  0  0  0  0  0  0  0  0
   -0.9078   -1.0285   -0.0658 H   0  0  0  0  0  0  0  0  0  0  0  0
   -0.5088    0.3244   -1.1589 H   0  0  0  0  0  0  0  0  0  0  0  0
    1.4391    0.2531    0.9440 H   0  0  0  0  0  0  0  0  0  0  0  0
    3.7441   -1.2941   -1.3138 H   0  0  0  0  0  0  0  0  0  0  0  0
    3.3678   -2.6225   -0.2189 H   0  0  0  0  0  0  0  0  0  0  0  0
    4.2628   -1.2929    1.4868 H   0  0  0  0  0  0  0  0  0  0  0  0
    4.5452    1.1303    1.4469 H   0  0  0  0  0  0  0  0  0  0  0  0
  1  2  1  0
  2  3  2  0
  2  4  1  0
  4  5  1  0
  5  6  1  0
  6  7  1  0
  7  8  1  0
  8  9  2  0
  8 10  1  0
 10 11  1  0
 11 12  1  0
 12 13  2  0
  1 14  1  0
  1 15  1  0
  1 16  1  0
  4 17  1  0
  5 18  1  0
  5 19  1  0
  6 20  1  0
  6 21  1  0
  7 22  1  0
 10 23  1  0
 10 24  1  0
 11 25  1  0
 12 26  1  0
M  END
$$$$

     RDKit          3D

 26 25  0  0  0  0  0  0  0  0999 V2000
    4.3739   -0.7754    1.3912 C   0  0  0  0  0  0  0  0  0  0  0  0
    2.9504   -0.5177    1.0200 C   0  0  0  0  0  0  0  0  0  0  0  0
    2.1169   -1.4220    1.2582 O   0  0  0  0  0  0  0  0  0  0  0  0
    2.5185    0.6787    0.4247 N   0  0  0  0  0  0  0  0  0  0  0  0
    1.1642    0.9982    0.0348 C   0  0  0  0  0  0  0  0  0  0  0  0
    0.7247    0.0106   -0.9908 C   0  0  0  0  0  0  0  0  0  0  0  0
   -0.6102    0.2090   -1.4796 N   0  0  0  0  0  0  0  0  0  0  0  0
   -1.7473    0.1644   -0.6194 C   0  0  0  0  0  0  0  0  0  0  0  0
   -1.5404   -0.0553    0.5792 O   0  0  0  0  0  0  0  0  0  0  0  0
   -3.1309    0.3731   -1.1365 C   0  0  0  0  0  0  0  0  0  0  0  0
   -4.0396    0.2602   -0.0301 N   0  0  0  0  0  0  0  0  0  0  0  0
   -4.1185   -0.9415    0.7015 C   0  0  0  0  0  0  0  0  0  0  0  0
   -3.3727   -1.9011    0.3506 O   0  0  0  0  0  0  0  0  0  0  0  0
    4.4887   -1.0144    2.4655 H   0  0  0  0  0  0  0  0  0  0  0  0
    5.0502    0.0227    1.0974 H   0  0  0  0  0  0  0  0  0  0  0  0
    4.6757   -1.6900    0.8235 H   0  0  0  0  0  0  0  0  0  0  0  0
    3.2636    1.3997    0.2530 H   0  0  0  0  0  0  0  0  0  0  0  0
    0.5181    0.9474    0.9533 H   0  0  0  0  0  0  0  0  0  0  0  0
    1.1513    2.0472   -0.3681 H   0  0  0  0  0  0  0  0  0  0  0  0
    1.4549    0.0990   -1.8503 H   0  0  0  0  0  0  0  0  0  0  0  0
    0.8736   -1.0081   -0.6082 H   0  0  0  0  0  0  0  0  0  0  0  0
   -0.7589    0.3891   -2.4790 H   0  0  0  0  0  0  0  0  0  0  0  0
   -3.3478   -0.3616   -1.9456 H   0  0  0  0  0  0  0  0  0  0  0  0
   -3.2280    1.3722   -1.6219 H   0  0  0  0  0  0  0  0  0  0  0  0
   -4.6313    1.0701    0.2195 H   0  0  0  0  0  0  0  0  0  0  0  0
   -4.7990   -1.0710    1.5572 H   0  0  0  0  0  0  0  0  0  0  0  0
  1  2  1  0
  2  3  2  0
  2  4  1  0
  4  5  1  0
  5  6  1  0
  6  7  1  0
  7  8  1  0
  8  9  2  0
  8 10  1  0
 10 11  1  0
 11 12  1  0
 12 13  2  0
  1 14  1  0
  1 15  1  0
  1 16  1  0
  4 17  1  0
  5 18  1  0
  5 19  1  0
  6 20  1  0
  6 21  1  0
  7 22  1  0
 10 23  1  0
 10 24  1  0
 11 25  1  0
 12 26  1  0
M  END
$$$$

     RDKit          3D

 26 25  0  0  0  0  0  0  0  0999 V2000
    4.2619    0.7153   -0.6251 C   0  0  0  0  0  0  0  0  0  0  0  0
    3.5021   -0.0182    0.4046 C   0  0  0  0  0  0  0  0  0  0  0  0
    3.8819   -0.2512    1.5564 O   0  0  0  0  0  0  0  0  0  0  0  0
    2.1829   -0.5135    0.0295 N   0  0  0  0  0  0  0  0  0  0  0  0
    1.4281   -1.2244    1.0032 C   0  0  0  0  0  0  0  0  0  0  0  0
    0.0850   -1.7225    0.7467 C   0  0  0  0  0  0  0  0  0  0  0  0
   -1.0211   -0.8823    0.4983 N   0  0  0  0  0  0  0  0  0  0  0  0
   -1.3102    0.0102   -0.5422 C   0  0  0  0  0  0  0  0  0  0  0  0
   -0.4748    0.1220   -1.4665 O   0  0  0  0  0  0  0  0  0  0  0  0
   -2.5178    0.8554   -0.6767 C   0  0  0  0  0  0  0  0  0  0  0  0
   -3.4873    0.7618    0.3439 N   0  0  0  0  0  0  0  0  0  0  0  0
   -4.6727    1.5824    0.2246 C   0  0  0  0  0  0  0  0  0  0  0  0
   -4.7989    2.3367   -0.7634 O   0  0  0  0  0  0  0  0  0  0  0  0
    4.6913    1.6536   -0.1648 H   0  0  0  0  0  0  0  0  0  0  0  0
    3.5993    1.0628   -1.4317 H   0  0  0  0  0  0  0  0  0  0  0  0
    5.1433    0.1448   -0.9836 H   0  0  0  0  0  0  0  0  0  0  0  0
    1.8690   -0.3511   -0.9177 H   0  0  0  0  0  0  0  0  0  0  0  0
    2.0644   -2.1634    1.2164 H   0  0  0  0  0  0  0  0  0  0  0  0
    1.4690   -0.6158    1.9859 H   0  0  0  0  0  0  0  0  0  0  0  0
   -0.2019   -2.4060    1.6142 H   0  0  0  0  0  0  0  0  0  0  0  0
    0.1888   -2.4953   -0.0936 H   0  0  0  0  0  0  0  0  0  0  0  0
   -1.8208   -0.9095    1.2427 H   0  0  0  0  0  0  0  0  0  0  0  0
   -3.0239    0.6765   -1.6702 H   0  0  0  0  0  0  0  0  0  0  0  0
   -2.1407    1.9164   -0.7453 H   0  0  0  0  0  0  0  0  0  0  0  0
   -3.4504    0.1676    1.1793 H   0  0  0  0  0  0  0  0  0  0  0  0
   -5.4465    1.5475    0.9810 H   0  0  0  0  0  0  0  0  0  0  0  0
  1  2  1  0
  2  3  2  0
  2  4  1  0
  4  5  1  0
  5  6  1  0
  6  7  1  0
  7  8  1  0
  8  9  2  0
  8 10  1  0
 10 11  1  0
 11 12  1  0
 12 13  2  0
  1 14  1  0
  1 15  1  0
  1 16  1  0
  4 17  1  0
  5 18  1  0
  5 19  1  0
  6 20  1  0
  6 21  1  0
  7 22  1  0
 10 23  1  0
 10 24  1  0
 11 25  1  0
 12 26  1  0
M  END
$$$$

     RDKit          3D

 26 25  0  0  0  0  0  0  0  0999 V2000
    4.7837   -0.4931    0.0003 C   0  0  0  0  0  0  0  0  0  0  0  0
    3.3642   -0.0572   -0.1533 C   0  0  0  0  0  0  0  0  0  0  0  0
    2.9139    0.0226   -1.3259 O   0  0  0  0  0  0  0  0  0  0  0  0
    2.5313    0.2589    0.9200 N   0  0  0  0  0  0  0  0  0  0  0  0
    1.1562    0.6792    0.8091 C   0  0  0  0  0  0  0  0  0  0  0  0
    0.3645   -0.4001    0.1570 C   0  0  0  0  0  0  0  0  0  0  0  0
   -1.0524   -0.0837   -0.0050 N   0  0  0  0  0  0  0  0  0  0  0  0
   -1.9233    0.1871    1.0819 C   0  0  0  0  0  0  0  0  0  0  0  0
   -1.3712    0.1394    2.2396 O   0  0  0  0  0  0  0  0  0  0  0  0
   -3.3590    0.5081    0.9645 C   0  0  0  0  0  0  0  0  0  0  0  0
   -3.8932    0.4930   -0.3517 N   0  0  0  0  0  0  0  0  0  0  0  0
   -3.9427   -0.6615   -1.1738 C   0  0  0  0  0  0  0  0  0  0  0  0
   -3.4991   -1.7504   -0.7250 O   0  0  0  0  0  0  0  0  0  0  0  0
    5.3410   -0.3628   -0.9503 H   0  0  0  0  0  0  0  0  0  0  0  0
    5.3172    0.1546    0.7526 H   0  0  0  0  0  0  0  0  0  0  0  0
    4.8768   -1.5334    0.3099 H   0  0  0  0  0  0  0  0  0  0  0  0
    2.9458    0.1830    1.8941 H   0  0  0  0  0  0  0  0  0  0  0  0
    0.7337    0.9614    1.8028 H   0  0  0  0  0  0  0  0  0  0  0  0
    1.0710    1.6168    0.2000 H   0  0  0  0  0  0  0  0  0  0  0  0
    0.7656   -0.5973   -0.8515 H   0  0  0  0  0  0  0  0  0  0  0  0
    0.4848   -1.3763    0.7022 H   0  0  0  0  0  0  0  0  0  0  0  0
   -1.4788   -0.0332   -0.9758 H   0  0  0  0  0  0  0  0  0  0  0  0
   -3.4976    1.5139    1.4589 H   0  0  0  0  0  0  0  0  0  0  0  0
   -3.9888   -0.1759    1.6075 H   0  0  0  0  0  0  0  0  0  0  0  0
   -4.2801    1.3880   -0.7551 H   0  0  0  0  0  0  0  0  0  0  0  0
   -4.3634   -0.5813   -2.1755 H   0  0  0  0  0  0  0  0  0  0  0  0
  1  2  1  0
  2  3  2  0
  2  4  1  0
  4  5  1  0
  5  6  1  0
  6  7  1  0
  7  8  1  0
  8  9  2  0
  8 10  1  0
 10 11  1  0
 11 12  1  0
 12 13  2  0
  1 14  1  0
  1 15  1  0
  1 16  1  0
  4 17  1  0
  5 18  1  0
  5 19  1  0
  6 20  1  0
  6 21  1  0
  7 22  1  0
 10 23  1  0
 10 24  1  0
 11 25  1  0
 12 26  1  0
M  END
$$$$

     RDKit          3D

 26 25  0  0  0  0  0  0  0  0999 V2000
    3.4810    1.2075    0.9511 C   0  0  0  0  0  0  0  0  0  0  0  0
    2.8487   -0.0870    0.5537 C   0  0  0  0  0  0  0  0  0  0  0  0
    2.9442   -1.1174    1.2296 O   0  0  0  0  0  0  0  0  0  0  0  0
    2.0917   -0.1672   -0.6604 N   0  0  0  0  0  0  0  0  0  0  0  0
    1.4462   -1.3680   -1.1246 C   0  0  0  0  0  0  0  0  0  0  0  0
    0.4130   -1.9069   -0.1756 C   0  0  0  0  0  0  0  0  0  0  0  0
   -0.6709   -0.9760    0.0967 N   0  0  0  0  0  0  0  0  0  0  0  0
   -1.5178   -0.4835   -0.9053 C   0  0  0  0  0  0  0  0  0  0  0  0
   -1.2494   -0.9305   -2.0786 O   0  0  0  0  0  0  0  0  0  0  0  0
   -2.6188    0.4531   -0.6884 C   0  0  0  0  0  0  0  0  0  0  0  0
   -2.7936    0.8602    0.6698 N   0  0  0  0  0  0  0  0  0  0  0  0
   -3.8614    1.7857    0.9684 C   0  0  0  0  0  0  0  0  0  0  0  0
   -4.6181    2.2211    0.0501 O   0  0  0  0  0  0  0  0  0  0  0  0
    2.8813    1.7011    1.7417 H   0  0  0  0  0  0  0  0  0  0  0  0
    4.5124    1.0494    1.3464 H   0  0  0  0  0  0  0  0  0  0  0  0
    3.5748    1.8575    0.0716 H   0  0  0  0  0  0  0  0  0  0  0  0
    2.0130    0.7218   -1.2379 H   0  0  0  0  0  0  0  0  0  0  0  0
    1.0495   -1.1640   -2.1394 H   0  0  0  0  0  0  0  0  0  0  0  0
    2.2432   -2.1497   -1.1746 H   0  0  0  0  0  0  0  0  0  0  0  0
    0.9056   -2.1366    0.7830 H   0  0  0  0  0  0  0  0  0  0  0  0
   -0.0101   -2.8170   -0.6540 H   0  0  0  0  0  0  0  0  0  0  0  0
   -0.7930   -0.6852    1.0882 H   0  0  0  0  0  0  0  0  0  0  0  0
   -2.4378    1.4102   -1.2717 H   0  0  0  0  0  0  0  0  0  0  0  0
   -3.5808    0.0543   -1.0937 H   0  0  0  0  0  0  0  0  0  0  0  0
   -2.2261    0.5530    1.4578 H   0  0  0  0  0  0  0  0  0  0  0  0
   -4.0268    2.1142    1.9630 H   0  0  0  0  0  0  0  0  0  0  0  0
  1  2  1  0
  2  3  2  0
  2  4  1  0
  4  5  1  0
  5  6  1  0
  6  7  1  0
  7  8  1  0
  8  9  2  0
  8 10  1  0
 10 11  1  0
 11 12  1  0
 12 13  2  0
  1 14  1  0
  1 15  1  0
  1 16  1  0
  4 17  1  0
  5 18  1  0
  5 19  1  0
  6 20  1  0
  6 21  1  0
  7 22  1  0
 10 23  1  0
 10 24  1  0
 11 25  1  0
 12 26  1  0
M  END
$$$$

     RDKit          3D

 26 25  0  0  0  0  0  0  0  0999 V2000
   -4.9016    0.3446    0.3801 C   0  0  0  0  0  0  0  0  0  0  0  0
   -3.5254    0.3082   -0.1519 C   0  0  0  0  0  0  0  0  0  0  0  0
   -2.9434    1.3240   -0.5546 O   0  0  0  0  0  0  0  0  0  0  0  0
   -2.8267   -0.9351   -0.2107 N   0  0  0  0  0  0  0  0  0  0  0  0
   -1.4979   -1.0368   -0.7123 C   0  0  0  0  0  0  0  0  0  0  0  0
   -0.4949   -0.2111    0.0579 C   0  0  0  0  0  0  0  0  0  0  0  0
    0.8339   -0.3797   -0.5290 N   0  0  0  0  0  0  0  0  0  0  0  0
    1.9758    0.2834   -0.0049 C   0  0  0  0  0  0  0  0  0  0  0  0
    1.8709    1.0451    0.9941 O   0  0  0  0  0  0  0  0  0  0  0  0
    3.3188    0.0770   -0.6439 C   0  0  0  0  0  0  0  0  0  0  0  0
    4.3415    0.8324    0.0311 N   0  0  0  0  0  0  0  0  0  0  0  0
    4.6597    0.6493    1.4011 C   0  0  0  0  0  0  0  0  0  0  0  0
    4.0273   -0.2165    2.0906 O   0  0  0  0  0  0  0  0  0  0  0  0
   -5.6580    0.3807   -0.4303 H   0  0  0  0  0  0  0  0  0  0  0  0
   -5.1350   -0.5094    1.0454 H   0  0  0  0  0  0  0  0  0  0  0  0
   -5.0241    1.2683    0.9882 H   0  0  0  0  0  0  0  0  0  0  0  0
   -3.3398   -1.7894    0.1367 H   0  0  0  0  0  0  0  0  0  0  0  0
   -1.4258   -0.8111   -1.8099 H   0  0  0  0  0  0  0  0  0  0  0  0
   -1.1706   -2.0927   -0.6192 H   0  0  0  0  0  0  0  0  0  0  0  0
   -0.7611    0.8631    0.1258 H   0  0  0  0  0  0  0  0  0  0  0  0
   -0.4060   -0.5738    1.1028 H   0  0  0  0  0  0  0  0  0  0  0  0
    0.9908   -0.9958   -1.3573 H   0  0  0  0  0  0  0  0  0  0  0  0
    3.5738   -1.0122   -0.6791 H   0  0  0  0  0  0  0  0  0  0  0  0
    3.2201    0.4396   -1.6838 H   0  0  0  0  0  0  0  0  0  0  0  0
    4.8745    1.5427   -0.4966 H   0  0  0  0  0  0  0  0  0  0  0  0
    5.4233    1.2051    1.9275 H   0  0  0  0  0  0  0  0  0  0  0  0
  1  2  1  0
  2  3  2  0
  2  4  1  0
  4  5  1  0
  5  6  1  0
  6  7  1  0
  7  8  1  0
  8  9  2  0
  8 10  1  0
 10 11  1  0
 11 12  1  0
 12 13  2  0
  1 14  1  0
  1 15  1  0
  1 16  1  0
  4 17  1  0
  5 18  1  0
  5 19  1  0
  6 20  1  0
  6 21  1  0
  7 22  1  0
 10 23  1  0
 10 24  1  0
 11 25  1  0
 12 26  1  0
M  END
$$$$
