
     RDKit          3D

 29 29  0  0  0  0  0  0  0  0999 V2000
    0.4755    1.5792   -1.4789 C   0  0  0  0  0  0  0  0  0  0  0  0
    0.9600    0.8672   -0.2508 C   0  0  2  0  0  0  0  0  0  0  0  0
    2.3914    0.3866   -0.5330 C   0  0  0  0  0  0  0  0  0  0  0  0
    2.9456   -0.3297    0.6279 C   0  0  0  0  0  0  0  0  0  0  0  0
    4.2727   -0.8282    0.5910 N   0  0  0  0  0  0  0  0  0  0  0  0
    2.2506   -0.5100    1.6703 O   0  0  0  0  0  0  0  0  0  0  0  0
    0.1132   -0.1890    0.1281 N   0  0  0  0  0  0  0  0  0  0  0  0
   -1.1866    0.0475    0.5833 C   0  0  1  0  0  0  0  0  0  0  0  0
   -2.2067    0.6537   -0.3026 C   0  0  0  0  0  0  0  0  0  0  0  0
   -3.4263    0.0008   -0.0650 O   0  0  0  0  0  0  0  0  0  0  0  0
   -3.2749   -0.7896    1.0632 C   0  0  0  0  0  0  0  0  0  0  0  0
   -1.8575   -1.3298    0.8198 C   0  0  1  0  0  0  0  0  0  0  0  0
   -1.8141   -1.9867   -0.3908 O   0  0  0  0  0  0  0  0  0  0  0  0
   -0.3574    2.2434   -1.2362 H   0  0  0  0  0  0  0  0  0  0  0  0
    1.3098    2.1819   -1.9273 H   0  0  0  0  0  0  0  0  0  0  0  0
    0.1282    0.8456   -2.2394 H   0  0  0  0  0  0  0  0  0  0  0  0
    1.0795    1.6410    0.5732 H   0  0  0  0  0  0  0  0  0  0  0  0
    3.0257    1.2709   -0.7989 H   0  0  0  0  0  0  0  0  0  0  0  0
    2.3694   -0.2655   -1.4041 H   0  0  0  0  0  0  0  0  0  0  0  0
    4.4692   -1.6546    0.0108 H   0  0  0  0  0  0  0  0  0  0  0  0
    5.0003   -0.3264    1.1611 H   0  0  0  0  0  0  0  0  0  0  0  0
    0.1549   -0.9393   -0.6045 H   0  0  0  0  0  0  0  0  0  0  0  0
   -1.2208    0.5537    1.5951 H   0  0  0  0  0  0  0  0  0  0  0  0
   -2.3430    1.7441   -0.1315 H   0  0  0  0  0  0  0  0  0  0  0  0
   -1.9757    0.4695   -1.3636 H   0  0  0  0  0  0  0  0  0  0  0  0
   -4.0190   -1.5686    1.1346 H   0  0  0  0  0  0  0  0  0  0  0  0
   -3.1858   -0.1315    1.9731 H   0  0  0  0  0  0  0  0  0  0  0  0
   -1.4338   -1.8470    1.6717 H   0  0  0  0  0  0  0  0  0  0  0  0
   -2.6445   -1.7893   -0.8764 H   0  0  0  0  0  0  0  0  0  0  0  0
  1  2  1  0
  2  3  1  0
  3  4  1  0
  4  5  1  0
  4  6  2  0
  2  7  1  0
  7  8  1  0
  8  9  1  0
  9 10  1  0
 10 11  1  0
 11 12  1  0
 12 13  1  0
 12  8  1  0
  1 14  1  0
  1 15  1  0
  1 16  1  0
  2 17  1  1
  3 18  1  0
  3 19  1  0
  5 20  1  0
  5 21  1  0
  7 22  1  0
  8 23  1  1
  9 24  1  0
  9 25  1  0
 11 26  1  0
 11 27  1  0
 12 28  1  1
 13 29  1  0
M  END
$$$$

     RDKit          3D

 29 29  0  0  0  0  0  0  0  0999 V2000
    0.8074   -2.1098    0.5898 C   0  0  0  0  0  0  0  0  0  0  0  0
    1.0847   -0.8313   -0.1583 C   0  0  2  0  0  0  0  0  0  0  0  0
    2.3338   -0.2184    0.4424 C   0  0  0  0  0  0  0  0  0  0  0  0
    2.6939    1.0491   -0.2437 C   0  0  0  0  0  0  0  0  0  0  0  0
    3.8303    1.7760    0.2147 N   0  0  0  0  0  0  0  0  0  0  0  0
    2.0565    1.5190   -1.2042 O   0  0  0  0  0  0  0  0  0  0  0  0
    0.0668    0.1112   -0.1587 N   0  0  0  0  0  0  0  0  0  0  0  0
   -1.1789   -0.1010   -0.7233 C   0  0  1  0  0  0  0  0  0  0  0  0
   -2.0355   -1.1722   -0.1976 C   0  0  0  0  0  0  0  0  0  0  0  0
   -3.3551   -0.7427   -0.1508 O   0  0  0  0  0  0  0  0  0  0  0  0
   -3.3834    0.5945   -0.4141 C   0  0  0  0  0  0  0  0  0  0  0  0
   -2.0035    1.1402   -0.4390 C   0  0  1  0  0  0  0  0  0  0  0  0
   -1.6935    1.6151    0.8478 O   0  0  0  0  0  0  0  0  0  0  0  0
    0.4934   -1.8493    1.6211 H   0  0  0  0  0  0  0  0  0  0  0  0
    0.1613   -2.8140    0.0718 H   0  0  0  0  0  0  0  0  0  0  0  0
    1.8068   -2.6133    0.7063 H   0  0  0  0  0  0  0  0  0  0  0  0
    1.3344   -1.1110   -1.2026 H   0  0  0  0  0  0  0  0  0  0  0  0
    3.1862   -0.9309    0.4906 H   0  0  0  0  0  0  0  0  0  0  0  0
    2.0732    0.0881    1.5035 H   0  0  0  0  0  0  0  0  0  0  0  0
    3.6395    2.5142    0.9372 H   0  0  0  0  0  0  0  0  0  0  0  0
    4.7711    1.5707   -0.1543 H   0  0  0  0  0  0  0  0  0  0  0  0
    0.2742    1.0378    0.1728 H   0  0  0  0  0  0  0  0  0  0  0  0
   -1.1109   -0.1827   -1.8354 H   0  0  0  0  0  0  0  0  0  0  0  0
   -1.7326   -1.4059    0.8386 H   0  0  0  0  0  0  0  0  0  0  0  0
   -2.0595   -2.0909   -0.8396 H   0  0  0  0  0  0  0  0  0  0  0  0
   -4.0382    1.1161    0.3434 H   0  0  0  0  0  0  0  0  0  0  0  0
   -3.8656    0.8600   -1.3954 H   0  0  0  0  0  0  0  0  0  0  0  0
   -1.8429    1.9276   -1.2049 H   0  0  0  0  0  0  0  0  0  0  0  0
   -2.3139    1.2539    1.5416 H   0  0  0  0  0  0  0  0  0  0  0  0
  1  2  1  0
  2  3  1  0
  3  4  1  0
  4  5  1  0
  4  6  2  0
  2  7  1  0
  7  8  1  0
  8  9  1  0
  9 10  1  0
 10 11  1  0
 11 12  1  0
 12 13  1  0
 12  8  1  0
  1 14  1  0
  1 15  1  0
  1 16  1  0
  2 17  1  6
  3 18  1  0
  3 19  1  0
  5 20  1  0
  5 21  1  0
  7 22  1  0
  8 23  1  6
  9 24  1  0
  9 25  1  0
 11 26  1  0
 11 27  1  0
 12 28  1  6
 13 29  1  0
M  END
$$$$

     RDKit          3D

 29 29  0  0  0  0  0  0  0  0999 V2000
    0.7326   -1.9200    0.9067 C   0  0  0  0  0  0  0  0  0  0  0  0
    1.0843   -0.8096   -0.0401 C   0  0  2  0  0  0  0  0  0  0  0  0
    2.4527   -0.2759    0.4046 C   0  0  0  0  0  0  0  0  0  0  0  0
    2.8661    0.8478   -0.5059 C   0  0  0  0  0  0  0  0  0  0  0  0
    4.1222    1.4440   -0.1921 N   0  0  0  0  0  0  0  0  0  0  0  0
    2.1807    1.2377   -1.4609 O   0  0  0  0  0  0  0  0  0  0  0  0
    0.1196    0.2388   -0.0737 N   0  0  0  0  0  0  0  0  0  0  0  0
   -1.1775   -0.0248   -0.5270 C   0  0  1  0  0  0  0  0  0  0  0  0
   -2.0335   -0.9759    0.2645 C   0  0  0  0  0  0  0  0  0  0  0  0
   -3.3503   -0.7003   -0.1332 O   0  0  0  0  0  0  0  0  0  0  0  0
   -3.4058    0.5406   -0.6974 C   0  0  0  0  0  0  0  0  0  0  0  0
   -2.0769    1.2278   -0.3753 C   0  0  1  0  0  0  0  0  0  0  0  0
   -2.1331    1.6217    0.9412 O   0  0  0  0  0  0  0  0  0  0  0  0
    1.7210   -2.3359    1.3067 H   0  0  0  0  0  0  0  0  0  0  0  0
    0.1609   -1.5309    1.7504 H   0  0  0  0  0  0  0  0  0  0  0  0
    0.2735   -2.8019    0.4068 H   0  0  0  0  0  0  0  0  0  0  0  0
    1.2146   -1.2105   -1.0777 H   0  0  0  0  0  0  0  0  0  0  0  0
    2.4220    0.1183    1.4285 H   0  0  0  0  0  0  0  0  0  0  0  0
    3.2371   -1.0514    0.3041 H   0  0  0  0  0  0  0  0  0  0  0  0
    4.2640    1.8993    0.7535 H   0  0  0  0  0  0  0  0  0  0  0  0
    4.9152    1.4518   -0.8563 H   0  0  0  0  0  0  0  0  0  0  0  0
    0.0846    0.6830    0.8701 H   0  0  0  0  0  0  0  0  0  0  0  0
   -1.2449   -0.2942   -1.6123 H   0  0  0  0  0  0  0  0  0  0  0  0
   -1.8804   -2.0385    0.0274 H   0  0  0  0  0  0  0  0  0  0  0  0
   -2.0144   -0.7334    1.3481 H   0  0  0  0  0  0  0  0  0  0  0  0
   -4.2075    1.2004   -0.3312 H   0  0  0  0  0  0  0  0  0  0  0  0
   -3.4375    0.4564   -1.8222 H   0  0  0  0  0  0  0  0  0  0  0  0
   -1.8113    2.0000   -1.0880 H   0  0  0  0  0  0  0  0  0  0  0  0
   -3.0780    1.7358    1.2115 H   0  0  0  0  0  0  0  0  0  0  0  0
  1  2  1  0
  2  3  1  0
  3  4  1  0
  4  5  1  0
  4  6  2  0
  2  7  1  0
  7  8  1  0
  8  9  1  0
  9 10  1  0
 10 11  1  0
 11 12  1  0
 12 13  1  0
 12  8  1  0
  1 14  1  0
  1 15  1  0
  1 16  1  0
  2 17  1  6
  3 18  1  0
  3 19  1  0
  5 20  1  0
  5 21  1  0
  7 22  1  0
  8 23  1  6
  9 24  1  0
  9 25  1  0
 11 26  1  0
 11 27  1  0
 12 28  1  6
 13 29  1  0
M  END
$$$$

     RDKit          3D

 29 29  0  0  0  0  0  0  0  0999 V2000
   -0.9312   -1.3856    0.8526 C   0  0  0  0  0  0  0  0  0  0  0  0
   -1.0342   -0.1502    0.0118 C   0  0  2  0  0  0  0  0  0  0  0  0
   -2.2945   -0.1572   -0.8613 C   0  0  0  0  0  0  0  0  0  0  0  0
   -3.5310   -0.2290   -0.0693 C   0  0  0  0  0  0  0  0  0  0  0  0
   -4.2389    0.9749    0.3102 N   0  0  0  0  0  0  0  0  0  0  0  0
   -4.0468   -1.2929    0.3183 O   0  0  0  0  0  0  0  0  0  0  0  0
    0.1104    0.1025   -0.7710 N   0  0  0  0  0  0  0  0  0  0  0  0
    1.2578    0.4210   -0.0820 C   0  0  1  0  0  0  0  0  0  0  0  0
    1.9323   -0.5280    0.8391 C   0  0  0  0  0  0  0  0  0  0  0  0
    3.1993    0.0175    1.0859 O   0  0  0  0  0  0  0  0  0  0  0  0
    3.4332    1.0272    0.1624 C   0  0  0  0  0  0  0  0  0  0  0  0
    2.4750    0.7024   -1.0080 C   0  0  1  0  0  0  0  0  0  0  0  0
    2.9311   -0.4665   -1.5891 O   0  0  0  0  0  0  0  0  0  0  0  0
   -0.9141   -1.1442    1.9243 H   0  0  0  0  0  0  0  0  0  0  0  0
   -0.1124   -2.0556    0.5367 H   0  0  0  0  0  0  0  0  0  0  0  0
   -1.8663   -2.0104    0.6701 H   0  0  0  0  0  0  0  0  0  0  0  0
   -1.2232    0.7148    0.7533 H   0  0  0  0  0  0  0  0  0  0  0  0
   -2.2825   -1.0354   -1.5386 H   0  0  0  0  0  0  0  0  0  0  0  0
   -2.2761    0.8004   -1.4371 H   0  0  0  0  0  0  0  0  0  0  0  0
   -4.3709    1.7696   -0.3457 H   0  0  0  0  0  0  0  0  0  0  0  0
   -4.6433    1.0781    1.2774 H   0  0  0  0  0  0  0  0  0  0  0  0
    0.1474   -0.2744   -1.7145 H   0  0  0  0  0  0  0  0  0  0  0  0
    1.1146    1.3950    0.4698 H   0  0  0  0  0  0  0  0  0  0  0  0
    1.4048   -0.7406    1.7910 H   0  0  0  0  0  0  0  0  0  0  0  0
    2.1473   -1.4804    0.3049 H   0  0  0  0  0  0  0  0  0  0  0  0
    4.4570    1.1672   -0.1475 H   0  0  0  0  0  0  0  0  0  0  0  0
    3.0293    1.9777    0.5940 H   0  0  0  0  0  0  0  0  0  0  0  0
    2.3053    1.5410   -1.6650 H   0  0  0  0  0  0  0  0  0  0  0  0
    3.8204   -0.7388   -1.2319 H   0  0  0  0  0  0  0  0  0  0  0  0
  1  2  1  0
  2  3  1  0
  3  4  1  0
  4  5  1  0
  4  6  2  0
  2  7  1  0
  7  8  1  0
  8  9  1  0
  9 10  1  0
 10 11  1  0
 11 12  1  0
 12 13  1  0
 12  8  1  0
  1 14  1  0
  1 15  1  0
  1 16  1  0
  2 17  1  1
  3 18  1  0
  3 19  1  0
  5 20  1  0
  5 21  1  0
  7 22  1  0
  8 23  1  1
  9 24  1  0
  9 25  1  0
 11 26  1  0
 11 27  1  0
 12 28  1  6
 13 29  1  0
M  END
$$$$

     RDKit          3D

 29 29  0  0  0  0  0  0  0  0999 V2000
    1.2036   -1.3334    0.8142 C   0  0  0  0  0  0  0  0  0  0  0  0
    0.9356   -0.3564   -0.2719 C   0  0  2  0  0  0  0  0  0  0  0  0
    1.8548    0.8622    0.0104 C   0  0  0  0  0  0  0  0  0  0  0  0
    3.2574    0.5082    0.0037 C   0  0  0  0  0  0  0  0  0  0  0  0
    3.9977    0.7452   -1.2040 N   0  0  0  0  0  0  0  0  0  0  0  0
    3.8171    0.0144    1.0060 O   0  0  0  0  0  0  0  0  0  0  0  0
   -0.3382    0.1815   -0.3847 N   0  0  0  0  0  0  0  0  0  0  0  0
   -1.5105   -0.5257   -0.6246 C   0  0  1  0  0  0  0  0  0  0  0  0
   -1.9112   -1.3746    0.5417 C   0  0  0  0  0  0  0  0  0  0  0  0
   -3.1661   -0.9035    1.0076 O   0  0  0  0  0  0  0  0  0  0  0  0
   -3.0989    0.4794    0.7217 C   0  0  0  0  0  0  0  0  0  0  0  0
   -2.6613    0.4468   -0.7379 C   0  0  1  0  0  0  0  0  0  0  0  0
   -2.2597    1.6899   -1.2058 O   0  0  0  0  0  0  0  0  0  0  0  0
    2.3045   -1.6281    0.7728 H   0  0  0  0  0  0  0  0  0  0  0  0
    1.0313   -0.8836    1.7956 H   0  0  0  0  0  0  0  0  0  0  0  0
    0.6080   -2.2717    0.6871 H   0  0  0  0  0  0  0  0  0  0  0  0
    1.2887   -0.7597   -1.2747 H   0  0  0  0  0  0  0  0  0  0  0  0
    1.5905    1.5974   -0.7780 H   0  0  0  0  0  0  0  0  0  0  0  0
    1.5417    1.3036    0.9970 H   0  0  0  0  0  0  0  0  0  0  0  0
    3.5222    0.6301   -2.1046 H   0  0  0  0  0  0  0  0  0  0  0  0
    4.9927    1.0275   -1.0618 H   0  0  0  0  0  0  0  0  0  0  0  0
   -0.4404    1.0944    0.1124 H   0  0  0  0  0  0  0  0  0  0  0  0
   -1.4656   -1.1582   -1.5767 H   0  0  0  0  0  0  0  0  0  0  0  0
   -1.9707   -2.4417    0.3270 H   0  0  0  0  0  0  0  0  0  0  0  0
   -1.2221   -1.1869    1.4006 H   0  0  0  0  0  0  0  0  0  0  0  0
   -2.2647    0.8830    1.3367 H   0  0  0  0  0  0  0  0  0  0  0  0
   -4.0277    1.0109    0.8945 H   0  0  0  0  0  0  0  0  0  0  0  0
   -3.4996    0.0157   -1.3408 H   0  0  0  0  0  0  0  0  0  0  0  0
   -2.1091    2.3333   -0.4469 H   0  0  0  0  0  0  0  0  0  0  0  0
  1  2  1  0
  2  3  1  0
  3  4  1  0
  4  5  1  0
  4  6  2  0
  2  7  1  0
  7  8  1  0
  8  9  1  0
  9 10  1  0
 10 11  1  0
 11 12  1  0
 12 13  1  0
 12  8  1  0
  1 14  1  0
  1 15  1  0
  1 16  1  0
  2 17  1  6
  3 18  1  0
  3 19  1  0
  5 20  1  0
  5 21  1  0
  7 22  1  0
  8 23  1  6
  9 24  1  0
  9 25  1  0
 11 26  1  0
 11 27  1  0
 12 28  1  6
 13 29  1  0
M  END
$$$$

     RDKit          3D

 29 29  0  0  0  0  0  0  0  0999 V2000
   -1.5342   -2.0563   -0.8594 C   0  0  0  0  0  0  0  0  0  0  0  0
   -1.2380   -1.0279    0.2213 C   0  0  2  0  0  0  0  0  0  0  0  0
   -2.0657    0.1863   -0.0331 C   0  0  0  0  0  0  0  0  0  0  0  0
   -1.8765    1.2279    0.9780 C   0  0  0  0  0  0  0  0  0  0  0  0
   -2.6071    2.4500    0.8934 N   0  0  0  0  0  0  0  0  0  0  0  0
   -1.0726    1.0633    1.9304 O   0  0  0  0  0  0  0  0  0  0  0  0
    0.0948   -0.8811    0.5439 N   0  0  0  0  0  0  0  0  0  0  0  0
    1.1071   -0.5193   -0.3231 C   0  0  1  0  0  0  0  0  0  0  0  0
    0.9707    0.8649   -0.8821 C   0  0  0  0  0  0  0  0  0  0  0  0
    2.2668    1.2870   -1.2081 O   0  0  0  0  0  0  0  0  0  0  0  0
    3.1835    0.3973   -0.7548 C   0  0  0  0  0  0  0  0  0  0  0  0
    2.4839   -0.3990    0.3281 C   0  0  1  0  0  0  0  0  0  0  0  0
    2.4208    0.2709    1.5235 O   0  0  0  0  0  0  0  0  0  0  0  0
   -2.6075   -2.3261   -0.7433 H   0  0  0  0  0  0  0  0  0  0  0  0
   -1.4396   -1.6392   -1.8797 H   0  0  0  0  0  0  0  0  0  0  0  0
   -0.9584   -2.9841   -0.6947 H   0  0  0  0  0  0  0  0  0  0  0  0
   -1.7405   -1.5097    1.1500 H   0  0  0  0  0  0  0  0  0  0  0  0
   -1.8683    0.6004   -1.0632 H   0  0  0  0  0  0  0  0  0  0  0  0
   -3.1578   -0.0578   -0.0527 H   0  0  0  0  0  0  0  0  0  0  0  0
   -3.4418    2.5288    1.5297 H   0  0  0  0  0  0  0  0  0  0  0  0
   -2.3360    3.2203    0.2438 H   0  0  0  0  0  0  0  0  0  0  0  0
    0.3602   -0.9146    1.5575 H   0  0  0  0  0  0  0  0  0  0  0  0
    1.2251   -1.1909   -1.2252 H   0  0  0  0  0  0  0  0  0  0  0  0
    0.3528    0.8913   -1.8047 H   0  0  0  0  0  0  0  0  0  0  0  0
    0.6187    1.6253   -0.1576 H   0  0  0  0  0  0  0  0  0  0  0  0
    3.4637   -0.2787   -1.5960 H   0  0  0  0  0  0  0  0  0  0  0  0
    4.0858    0.8958   -0.3173 H   0  0  0  0  0  0  0  0  0  0  0  0
    3.0087   -1.3695    0.3971 H   0  0  0  0  0  0  0  0  0  0  0  0
    2.3016   -0.3556    2.2985 H   0  0  0  0  0  0  0  0  0  0  0  0
  1  2  1  0
  2  3  1  0
  3  4  1  0
  4  5  1  0
  4  6  2  0
  2  7  1  0
  7  8  1  0
  8  9  1  0
  9 10  1  0
 10 11  1  0
 11 12  1  0
 12 13  1  0
 12  8  1  0
  1 14  1  0
  1 15  1  0
  1 16  1  0
  2 17  1  1
  3 18  1  0
  3 19  1  0
  5 20  1  0
  5 21  1  0
  7 22  1  0
  8 23  1  6
  9 24  1  0
  9 25  1  0
 11 26  1  0
 11 27  1  0
 12 28  1  1
 13 29  1  0
M  END
$$$$

     RDKit          3D

 29 29  0  0  0  0  0  0  0  0999 V2000
   -1.0551   -2.2080   -1.0574 C   0  0  0  0  0  0  0  0  0  0  0  0
   -1.1916   -1.0119   -0.1156 C   0  0  2  0  0  0  0  0  0  0  0  0
   -1.9688    0.0636   -0.7847 C   0  0  0  0  0  0  0  0  0  0  0  0
   -2.1696    1.2342    0.0714 C   0  0  0  0  0  0  0  0  0  0  0  0
   -2.3459    1.0977    1.4679 N   0  0  0  0  0  0  0  0  0  0  0  0
   -2.1891    2.3884   -0.4197 O   0  0  0  0  0  0  0  0  0  0  0  0
    0.0358   -0.6797    0.5005 N   0  0  0  0  0  0  0  0  0  0  0  0
    1.1398   -0.2910   -0.2799 C   0  0  1  0  0  0  0  0  0  0  0  0
    1.0284    0.9893   -1.0472 C   0  0  0  0  0  0  0  0  0  0  0  0
    2.3857    1.4747   -1.0832 O   0  0  0  0  0  0  0  0  0  0  0  0
    2.5880    1.4797    0.3224 C   0  0  0  0  0  0  0  0  0  0  0  0
    2.3088    0.0171    0.6364 C   0  0  1  0  0  0  0  0  0  0  0  0
    1.9737   -0.0829    1.9888 O   0  0  0  0  0  0  0  0  0  0  0  0
   -0.2480   -2.8790   -0.7076 H   0  0  0  0  0  0  0  0  0  0  0  0
   -1.9994   -2.7938   -1.0178 H   0  0  0  0  0  0  0  0  0  0  0  0
   -0.9439   -1.8981   -2.1066 H   0  0  0  0  0  0  0  0  0  0  0  0
   -1.8459   -1.4078    0.7243 H   0  0  0  0  0  0  0  0  0  0  0  0
   -1.5959    0.3229   -1.7988 H   0  0  0  0  0  0  0  0  0  0  0  0
   -2.9977   -0.3570   -0.9831 H   0  0  0  0  0  0  0  0  0  0  0  0
   -2.9394    0.3085    1.8141 H   0  0  0  0  0  0  0  0  0  0  0  0
   -1.8967    1.7658    2.1424 H   0  0  0  0  0  0  0  0  0  0  0  0
    0.2914   -1.4326    1.1678 H   0  0  0  0  0  0  0  0  0  0  0  0
    1.5188   -1.1222   -0.9492 H   0  0  0  0  0  0  0  0  0  0  0  0
    0.7262    0.9218   -2.0837 H   0  0  0  0  0  0  0  0  0  0  0  0
    0.5045    1.7371   -0.4214 H   0  0  0  0  0  0  0  0  0  0  0  0
    1.7579    2.0851    0.7311 H   0  0  0  0  0  0  0  0  0  0  0  0
    3.5900    1.7985    0.5856 H   0  0  0  0  0  0  0  0  0  0  0  0
    3.2263   -0.5660    0.3855 H   0  0  0  0  0  0  0  0  0  0  0  0
    2.3118   -0.9543    2.3177 H   0  0  0  0  0  0  0  0  0  0  0  0
  1  2  1  0
  2  3  1  0
  3  4  1  0
  4  5  1  0
  4  6  2  0
  2  7  1  0
  7  8  1  0
  8  9  1  0
  9 10  1  0
 10 11  1  0
 11 12  1  0
 12 13  1  0
 12  8  1  0
  1 14  1  0
  1 15  1  0
  1 16  1  0
  2 17  1  1
  3 18  1  0
  3 19  1  0
  5 20  1  0
  5 21  1  0
  7 22  1  0
  8 23  1  6
  9 24  1  0
  9 25  1  0
 11 26  1  0
 11 27  1  0
 12 28  1  6
 13 29  1  0
M  END
$$$$

     RDKit          3D

 29 29  0  0  0  0  0  0  0  0999 V2000
    1.2429   -2.2447   -0.3698 C   0  0  0  0  0  0  0  0  0  0  0  0
    0.7435   -0.8021   -0.4147 C   0  0  2  0  0  0  0  0  0  0  0  0
    1.8290    0.1364    0.0998 C   0  0  0  0  0  0  0  0  0  0  0  0
    3.0512    0.0255   -0.7380 C   0  0  0  0  0  0  0  0  0  0  0  0
    4.2136    0.7931   -0.4617 N   0  0  0  0  0  0  0  0  0  0  0  0
    3.0269   -0.7732   -1.7059 O   0  0  0  0  0  0  0  0  0  0  0  0
   -0.3928   -0.7264    0.4757 N   0  0  0  0  0  0  0  0  0  0  0  0
   -1.0677    0.5231    0.2916 C   0  0  1  0  0  0  0  0  0  0  0  0
   -1.6337    0.6812   -1.1034 C   0  0  0  0  0  0  0  0  0  0  0  0
   -2.9712    0.9598   -1.0071 O   0  0  0  0  0  0  0  0  0  0  0  0
   -3.1805    1.5077    0.2427 C   0  0  0  0  0  0  0  0  0  0  0  0
   -2.3577    0.5594    1.1245 C   0  0  1  0  0  0  0  0  0  0  0  0
   -2.8730   -0.7127    1.1708 O   0  0  0  0  0  0  0  0  0  0  0  0
    2.0802   -2.2567    0.3581 H   0  0  0  0  0  0  0  0  0  0  0  0
    1.5263   -2.6171   -1.3744 H   0  0  0  0  0  0  0  0  0  0  0  0
    0.4579   -2.9441    0.0069 H   0  0  0  0  0  0  0  0  0  0  0  0
    0.5045   -0.4857   -1.4371 H   0  0  0  0  0  0  0  0  0  0  0  0
    2.0778   -0.2084    1.1451 H   0  0  0  0  0  0  0  0  0  0  0  0
    1.4645    1.1644    0.1333 H   0  0  0  0  0  0  0  0  0  0  0  0
    4.1153    1.8035   -0.2379 H   0  0  0  0  0  0  0  0  0  0  0  0
    5.1538    0.3317   -0.4867 H   0  0  0  0  0  0  0  0  0  0  0  0
   -1.0677   -1.4966    0.3145 H   0  0  0  0  0  0  0  0  0  0  0  0
   -0.4877    1.3959    0.6177 H   0  0  0  0  0  0  0  0  0  0  0  0
   -1.5123   -0.2918   -1.6344 H   0  0  0  0  0  0  0  0  0  0  0  0
   -1.0949    1.4369   -1.6911 H   0  0  0  0  0  0  0  0  0  0  0  0
   -2.6488    2.4802    0.2693 H   0  0  0  0  0  0  0  0  0  0  0  0
   -4.2286    1.5470    0.5389 H   0  0  0  0  0  0  0  0  0  0  0  0
   -2.1797    1.0074    2.1189 H   0  0  0  0  0  0  0  0  0  0  0  0
   -3.7909   -0.7936    0.8248 H   0  0  0  0  0  0  0  0  0  0  0  0
  1  2  1  0
  2  3  1  0
  3  4  1  0
  4  5  1  0
  4  6  2  0
  2  7  1  0
  7  8  1  0
  8  9  1  0
  9 10  1  0
 10 11  1  0
 11 12  1  0
 12 13  1  0
 12  8  1  0
  1 14  1  0
  1 15  1  0
  1 16  1  0
  2 17  1  6
  3 18  1  0
  3 19  1  0
  5 20  1  0
  5 21  1  0
  7 22  1  0
  8 23  1  1
  9 24  1  0
  9 25  1  0
 11 26  1  0
 11 27  1  0
 12 28  1  1
 13 29  1  0
M  END
$$$$
