
     RDKit          3D

 27 26  0  0  0  0  0  0  0  0999 V2000
   -2.3167    1.8790    0.2896 C   0  0  0  0  0  0  0  0  0  0  0  0
   -2.4579    0.6745   -0.5880 C   0  0  2  0  0  0  0  0  0  0  0  0
   -3.8168    0.4256   -0.8014 O   0  0  0  0  0  0  0  0  0  0  0  0
   -1.8737   -0.5702    0.0283 C   0  0  1  0  0  0  0  0  0  0  0  0
   -2.0788   -1.6551   -0.9128 N   0  0  0  0  0  0  0  0  0  0  0  0
   -0.4331   -0.4087    0.3583 C   0  0  0  0  0  0  0  0  0  0  0  0
   -0.0965    0.4847    1.1564 O   0  0  0  0  0  0  0  0  0  0  0  0
    0.5777   -1.2365   -0.2030 N   0  0  0  0  0  0  0  0  0  0  0  0
    1.9709   -1.1147    0.0872 C   0  0  0  0  0  0  0  0  0  0  0  0
    2.5359    0.2397   -0.2806 C   0  0  0  0  0  0  0  0  0  0  0  0
    3.9855    0.3174    0.0396 C   0  0  0  0  0  0  0  0  0  0  0  0
    4.6154   -0.6449    0.5495 O   0  0  0  0  0  0  0  0  0  0  0  0
    4.7045    1.4713   -0.2167 O   0  0  0  0  0  0  0  0  0  0  0  0
   -2.1548    1.5735    1.3602 H   0  0  0  0  0  0  0  0  0  0  0  0
   -3.2426    2.4704    0.2547 H   0  0  0  0  0  0  0  0  0  0  0  0
   -1.4718    2.4877   -0.0916 H   0  0  0  0  0  0  0  0  0  0  0  0
   -2.0185    0.8783   -1.6008 H   0  0  0  0  0  0  0  0  0  0  0  0
   -4.1899   -0.1717   -0.0900 H   0  0  0  0  0  0  0  0  0  0  0  0
   -2.4170   -0.7877    0.9533 H   0  0  0  0  0  0  0  0  0  0  0  0
   -2.9783   -1.5605   -1.4177 H   0  0  0  0  0  0  0  0  0  0  0  0
   -2.0241   -2.5671   -0.4278 H   0  0  0  0  0  0  0  0  0  0  0  0
    0.2497   -1.9707   -0.8657 H   0  0  0  0  0  0  0  0  0  0  0  0
    2.2083   -1.3027    1.1661 H   0  0  0  0  0  0  0  0  0  0  0  0
    2.5403   -1.8648   -0.4798 H   0  0  0  0  0  0  0  0  0  0  0  0
    2.4270    0.4700   -1.3462 H   0  0  0  0  0  0  0  0  0  0  0  0
    2.0328    1.0153    0.3380 H   0  0  0  0  0  0  0  0  0  0  0  0
    5.7226    1.4679   -0.3340 H   0  0  0  0  0  0  0  0  0  0  0  0
  1  2  1  0
  2  3  1  0
  2  4  1  0
  4  5  1  0
  4  6  1  0
  6  7  2  0
  6  8  1  0
  8  9  1  0
  9 10  1  0
 10 11  1  0
 11 12  2  0
 11 13  1  0
  1 14  1  0
  1 15  1  0
  1 16  1  0
  2 17  1  6
  3 18  1  0
  4 19  1  1
  5 20  1  0
  5 21  1  0
  8 22  1  0
  9 23  1  0
  9 24  1  0
 10 25  1  0
 10 26  1  0
 13 27  1  0
M  END
$$$$

     RDKit          3D

 27 26  0  0  0  0  0  0  0  0999 V2000
   -3.1057    1.2850    0.3872 C   0  0  0  0  0  0  0  0  0  0  0  0
   -2.4068    0.3340   -0.5423 C   0  0  2  0  0  0  0  0  0  0  0  0
   -3.4065   -0.4099   -1.2077 O   0  0  0  0  0  0  0  0  0  0  0  0
   -1.5493   -0.6737    0.1883 C   0  0  1  0  0  0  0  0  0  0  0  0
   -0.9953   -1.5650   -0.8241 N   0  0  0  0  0  0  0  0  0  0  0  0
   -0.4611   -0.0511    0.9588 C   0  0  0  0  0  0  0  0  0  0  0  0
   -0.7609    0.7518    1.8792 O   0  0  0  0  0  0  0  0  0  0  0  0
    0.9084   -0.3223    0.7024 N   0  0  0  0  0  0  0  0  0  0  0  0
    1.9805    0.2971    1.4686 C   0  0  0  0  0  0  0  0  0  0  0  0
    3.3337   -0.1698    0.9840 C   0  0  0  0  0  0  0  0  0  0  0  0
    3.5716    0.1558   -0.4279 C   0  0  0  0  0  0  0  0  0  0  0  0
    4.6599   -0.1816   -0.9411 O   0  0  0  0  0  0  0  0  0  0  0  0
    2.6624    0.8175   -1.2358 O   0  0  0  0  0  0  0  0  0  0  0  0
   -4.1730    1.4081    0.1100 H   0  0  0  0  0  0  0  0  0  0  0  0
   -2.6516    2.3074    0.2813 H   0  0  0  0  0  0  0  0  0  0  0  0
   -3.0845    0.9547    1.4418 H   0  0  0  0  0  0  0  0  0  0  0  0
   -1.8598    0.8829   -1.3119 H   0  0  0  0  0  0  0  0  0  0  0  0
   -3.5362   -1.2916   -0.7639 H   0  0  0  0  0  0  0  0  0  0  0  0
   -2.2116   -1.2649    0.8585 H   0  0  0  0  0  0  0  0  0  0  0  0
   -1.6400   -1.6735   -1.6181 H   0  0  0  0  0  0  0  0  0  0  0  0
   -0.6693   -2.4664   -0.4042 H   0  0  0  0  0  0  0  0  0  0  0  0
    1.1357   -0.9851   -0.0583 H   0  0  0  0  0  0  0  0  0  0  0  0
    1.8872   -0.0010    2.5361 H   0  0  0  0  0  0  0  0  0  0  0  0
    1.8818    1.4004    1.4368 H   0  0  0  0  0  0  0  0  0  0  0  0
    4.1393    0.2554    1.6031 H   0  0  0  0  0  0  0  0  0  0  0  0
    3.3347   -1.2853    1.0718 H   0  0  0  0  0  0  0  0  0  0  0  0
    3.0162    1.4912   -1.9165 H   0  0  0  0  0  0  0  0  0  0  0  0
  1  2  1  0
  2  3  1  0
  2  4  1  0
  4  5  1  0
  4  6  1  0
  6  7  2  0
  6  8  1  0
  8  9  1  0
  9 10  1  0
 10 11  1  0
 11 12  2  0
 11 13  1  0
  1 14  1  0
  1 15  1  0
  1 16  1  0
  2 17  1  6
  3 18  1  0
  4 19  1  1
  5 20  1  0
  5 21  1  0
  8 22  1  0
  9 23  1  0
  9 24  1  0
 10 25  1  0
 10 26  1  0
 13 27  1  0
M  END
$$$$

     RDKit          3D

 27 26  0  0  0  0  0  0  0  0999 V2000
   -2.8817    0.6416   -1.0248 C   0  0  0  0  0  0  0  0  0  0  0  0
   -2.6564   -0.0120    0.3191 C   0  0  2  0  0  0  0  0  0  0  0  0
   -2.4364    0.8953    1.3203 O   0  0  0  0  0  0  0  0  0  0  0  0
   -1.5924   -1.0922    0.2495 C   0  0  1  0  0  0  0  0  0  0  0  0
   -1.9477   -1.9597   -0.8482 N   0  0  0  0  0  0  0  0  0  0  0  0
   -0.2356   -0.5854    0.0710 C   0  0  0  0  0  0  0  0  0  0  0  0
    0.4084   -0.9323   -0.9720 O   0  0  0  0  0  0  0  0  0  0  0  0
    0.4431    0.2796    0.9781 N   0  0  0  0  0  0  0  0  0  0  0  0
    1.7839    0.7566    0.7763 C   0  0  0  0  0  0  0  0  0  0  0  0
    2.8125   -0.3349    0.6805 C   0  0  0  0  0  0  0  0  0  0  0  0
    4.1325    0.3727    0.4732 C   0  0  0  0  0  0  0  0  0  0  0  0
    4.9887    0.3881    1.3965 O   0  0  0  0  0  0  0  0  0  0  0  0
    4.4470    1.0219   -0.7018 O   0  0  0  0  0  0  0  0  0  0  0  0
   -3.6042    0.0534   -1.6258 H   0  0  0  0  0  0  0  0  0  0  0  0
   -3.3617    1.6238   -0.8318 H   0  0  0  0  0  0  0  0  0  0  0  0
   -1.9661    0.6924   -1.6490 H   0  0  0  0  0  0  0  0  0  0  0  0
   -3.6173   -0.5385    0.5435 H   0  0  0  0  0  0  0  0  0  0  0  0
   -3.1069    0.7725    2.0464 H   0  0  0  0  0  0  0  0  0  0  0  0
   -1.6580   -1.6548    1.2187 H   0  0  0  0  0  0  0  0  0  0  0  0
   -1.4171   -1.7052   -1.7205 H   0  0  0  0  0  0  0  0  0  0  0  0
   -2.9913   -1.8980   -1.0512 H   0  0  0  0  0  0  0  0  0  0  0  0
   -0.1286    0.5543    1.8360 H   0  0  0  0  0  0  0  0  0  0  0  0
    1.8847    1.3577   -0.1791 H   0  0  0  0  0  0  0  0  0  0  0  0
    2.0066    1.4891    1.5742 H   0  0  0  0  0  0  0  0  0  0  0  0
    2.6593   -0.9604   -0.2143 H   0  0  0  0  0  0  0  0  0  0  0  0
    2.8677   -0.9347    1.6254 H   0  0  0  0  0  0  0  0  0  0  0  0
    5.1670    1.7090   -0.7823 H   0  0  0  0  0  0  0  0  0  0  0  0
  1  2  1  0
  2  3  1  0
  2  4  1  0
  4  5  1  0
  4  6  1  0
  6  7  2  0
  6  8  1  0
  8  9  1  0
  9 10  1  0
 10 11  1  0
 11 12  2  0
 11 13  1  0
  1 14  1  0
  1 15  1  0
  1 16  1  0
  2 17  1  1
  3 18  1  0
  4 19  1  1
  5 20  1  0
  5 21  1  0
  8 22  1  0
  9 23  1  0
  9 24  1  0
 10 25  1  0
 10 26  1  0
 13 27  1  0
M  END
$$$$

     RDKit          3D

 27 26  0  0  0  0  0  0  0  0999 V2000
   -2.8024    0.5596    0.7804 C   0  0  0  0  0  0  0  0  0  0  0  0
   -2.6733    0.1427   -0.6500 C   0  0  2  0  0  0  0  0  0  0  0  0
   -3.8753   -0.5454   -0.9526 O   0  0  0  0  0  0  0  0  0  0  0  0
   -1.5751   -0.8701   -0.9029 C   0  0  1  0  0  0  0  0  0  0  0  0
   -1.6865   -1.2590   -2.3211 N   0  0  0  0  0  0  0  0  0  0  0  0
   -0.2190   -0.3362   -0.7093 C   0  0  0  0  0  0  0  0  0  0  0  0
    0.5642   -0.2270   -1.7128 O   0  0  0  0  0  0  0  0  0  0  0  0
    0.3168    0.0836    0.5408 N   0  0  0  0  0  0  0  0  0  0  0  0
    1.6519    0.5957    0.6549 C   0  0  0  0  0  0  0  0  0  0  0  0
    2.7287   -0.3648    0.2334 C   0  0  0  0  0  0  0  0  0  0  0  0
    4.0352    0.3586    0.4296 C   0  0  0  0  0  0  0  0  0  0  0  0
    5.0930   -0.2551    0.1392 O   0  0  0  0  0  0  0  0  0  0  0  0
    4.1224    1.6397    0.9044 O   0  0  0  0  0  0  0  0  0  0  0  0
   -2.1830    1.4211    1.0695 H   0  0  0  0  0  0  0  0  0  0  0  0
   -3.8645    0.9179    0.9452 H   0  0  0  0  0  0  0  0  0  0  0  0
   -2.6534   -0.2545    1.4907 H   0  0  0  0  0  0  0  0  0  0  0  0
   -2.6013    1.0128   -1.3196 H   0  0  0  0  0  0  0  0  0  0  0  0
   -3.7814   -1.4285   -0.5143 H   0  0  0  0  0  0  0  0  0  0  0  0
   -1.7884   -1.7798   -0.3226 H   0  0  0  0  0  0  0  0  0  0  0  0
   -0.8115   -1.7974   -2.5220 H   0  0  0  0  0  0  0  0  0  0  0  0
   -1.6140   -0.3695   -2.8649 H   0  0  0  0  0  0  0  0  0  0  0  0
   -0.2859    0.0066    1.3734 H   0  0  0  0  0  0  0  0  0  0  0  0
    1.8605    0.8945    1.6931 H   0  0  0  0  0  0  0  0  0  0  0  0
    1.7717    1.5308    0.0390 H   0  0  0  0  0  0  0  0  0  0  0  0
    2.6715   -0.6584   -0.8314 H   0  0  0  0  0  0  0  0  0  0  0  0
    2.6912   -1.2852    0.8598 H   0  0  0  0  0  0  0  0  0  0  0  0
    4.9075    2.2674    0.7058 H   0  0  0  0  0  0  0  0  0  0  0  0
  1  2  1  0
  2  3  1  0
  2  4  1  0
  4  5  1  0
  4  6  1  0
  6  7  2  0
  6  8  1  0
  8  9  1  0
  9 10  1  0
 10 11  1  0
 11 12  2  0
 11 13  1  0
  1 14  1  0
  1 15  1  0
  1 16  1  0
  2 17  1  6
  3 18  1  0
  4 19  1  1
  5 20  1  0
  5 21  1  0
  8 22  1  0
  9 23  1  0
  9 24  1  0
 10 25  1  0
 10 26  1  0
 13 27  1  0
M  END
$$$$

     RDKit          3D

 27 26  0  0  0  0  0  0  0  0999 V2000
   -3.0328    1.2529   -0.5043 C   0  0  0  0  0  0  0  0  0  0  0  0
   -2.5645   -0.1598   -0.4139 C   0  0  2  0  0  0  0  0  0  0  0  0
   -3.6378   -1.0458   -0.4346 O   0  0  0  0  0  0  0  0  0  0  0  0
   -1.7532   -0.4519    0.8244 C   0  0  1  0  0  0  0  0  0  0  0  0
   -1.3030   -1.8287    0.7271 N   0  0  0  0  0  0  0  0  0  0  0  0
   -0.6053    0.4881    0.8908 C   0  0  0  0  0  0  0  0  0  0  0  0
   -0.8715    1.7148    0.9775 O   0  0  0  0  0  0  0  0  0  0  0  0
    0.7463    0.0860    0.8623 N   0  0  0  0  0  0  0  0  0  0  0  0
    1.7955    1.0609    0.9312 C   0  0  0  0  0  0  0  0  0  0  0  0
    3.1684    0.4902    0.8908 C   0  0  0  0  0  0  0  0  0  0  0  0
    3.4347   -0.2739   -0.3466 C   0  0  0  0  0  0  0  0  0  0  0  0
    2.5975   -0.4310   -1.2724 O   0  0  0  0  0  0  0  0  0  0  0  0
    4.6849   -0.8562   -0.5012 O   0  0  0  0  0  0  0  0  0  0  0  0
   -4.0628    1.2616   -0.9653 H   0  0  0  0  0  0  0  0  0  0  0  0
   -2.4158    1.8803   -1.1962 H   0  0  0  0  0  0  0  0  0  0  0  0
   -3.1581    1.7247    0.4925 H   0  0  0  0  0  0  0  0  0  0  0  0
   -1.9120   -0.4502   -1.2879 H   0  0  0  0  0  0  0  0  0  0  0  0
   -3.3663   -1.9535   -0.6784 H   0  0  0  0  0  0  0  0  0  0  0  0
   -2.4145   -0.3751    1.7135 H   0  0  0  0  0  0  0  0  0  0  0  0
   -0.5840   -1.9865    0.0163 H   0  0  0  0  0  0  0  0  0  0  0  0
   -1.1632   -2.2757    1.6382 H   0  0  0  0  0  0  0  0  0  0  0  0
    0.9733   -0.9210    0.7912 H   0  0  0  0  0  0  0  0  0  0  0  0
    1.6495    1.8340    0.1520 H   0  0  0  0  0  0  0  0  0  0  0  0
    1.6802    1.5906    1.9127 H   0  0  0  0  0  0  0  0  0  0  0  0
    3.3648   -0.1039    1.8103 H   0  0  0  0  0  0  0  0  0  0  0  0
    3.8911    1.3319    0.9158 H   0  0  0  0  0  0  0  0  0  0  0  0
    4.8587   -1.6026   -1.1803 H   0  0  0  0  0  0  0  0  0  0  0  0
  1  2  1  0
  2  3  1  0
  2  4  1  0
  4  5  1  0
  4  6  1  0
  6  7  2  0
  6  8  1  0
  8  9  1  0
  9 10  1  0
 10 11  1  0
 11 12  2  0
 11 13  1  0
  1 14  1  0
  1 15  1  0
  1 16  1  0
  2 17  1  6
  3 18  1  0
  4 19  1  1
  5 20  1  0
  5 21  1  0
  8 22  1  0
  9 23  1  0
  9 24  1  0
 10 25  1  0
 10 26  1  0
 13 27  1  0
M  END
$$$$

     RDKit          3D

 27 26  0  0  0  0  0  0  0  0999 V2000
   -3.2672   -1.1859   -0.6731 C   0  0  0  0  0  0  0  0  0  0  0  0
   -2.8494   -0.2770    0.4414 C   0  0  2  0  0  0  0  0  0  0  0  0
   -3.9814    0.5013    0.7773 O   0  0  0  0  0  0  0  0  0  0  0  0
   -1.7700    0.6934    0.0464 C   0  0  1  0  0  0  0  0  0  0  0  0
   -1.5063    1.5591    1.1790 N   0  0  0  0  0  0  0  0  0  0  0  0
   -0.5576    0.0533   -0.4707 C   0  0  0  0  0  0  0  0  0  0  0  0
   -0.6371   -0.7240   -1.4520 O   0  0  0  0  0  0  0  0  0  0  0  0
    0.7256    0.2759    0.0972 N   0  0  0  0  0  0  0  0  0  0  0  0
    1.9333   -0.3271   -0.3750 C   0  0  0  0  0  0  0  0  0  0  0  0
    3.0796    0.1562    0.4849 C   0  0  0  0  0  0  0  0  0  0  0  0
    4.3681   -0.4019    0.0868 C   0  0  0  0  0  0  0  0  0  0  0  0
    4.4334   -1.1946   -0.8806 O   0  0  0  0  0  0  0  0  0  0  0  0
    5.5258   -0.0690    0.7629 O   0  0  0  0  0  0  0  0  0  0  0  0
   -2.6895   -2.1221   -0.7274 H   0  0  0  0  0  0  0  0  0  0  0  0
   -4.3304   -1.4954   -0.4528 H   0  0  0  0  0  0  0  0  0  0  0  0
   -3.3206   -0.6571   -1.6481 H   0  0  0  0  0  0  0  0  0  0  0  0
   -2.5557   -0.8821    1.3216 H   0  0  0  0  0  0  0  0  0  0  0  0
   -3.9792    1.2915    0.1480 H   0  0  0  0  0  0  0  0  0  0  0  0
   -2.1781    1.3468   -0.7648 H   0  0  0  0  0  0  0  0  0  0  0  0
   -1.3317    0.9807    2.0261 H   0  0  0  0  0  0  0  0  0  0  0  0
   -2.3314    2.1982    1.2791 H   0  0  0  0  0  0  0  0  0  0  0  0
    0.7355    0.9341    0.9151 H   0  0  0  0  0  0  0  0  0  0  0  0
    1.9378   -1.4385   -0.3127 H   0  0  0  0  0  0  0  0  0  0  0  0
    2.1765   -0.0733   -1.4283 H   0  0  0  0  0  0  0  0  0  0  0  0
    3.0906    1.2756    0.5532 H   0  0  0  0  0  0  0  0  0  0  0  0
    2.8526   -0.2164    1.5268 H   0  0  0  0  0  0  0  0  0  0  0  0
    6.4268   -0.2016    0.3107 H   0  0  0  0  0  0  0  0  0  0  0  0
  1  2  1  0
  2  3  1  0
  2  4  1  0
  4  5  1  0
  4  6  1  0
  6  7  2  0
  6  8  1  0
  8  9  1  0
  9 10  1  0
 10 11  1  0
 11 12  2  0
 11 13  1  0
  1 14  1  0
  1 15  1  0
  1 16  1  0
  2 17  1  1
  3 18  1  0
  4 19  1  6
  5 20  1  0
  5 21  1  0
  8 22  1  0
  9 23  1  0
  9 24  1  0
 10 25  1  0
 10 26  1  0
 13 27  1  0
M  END
$$$$

     RDKit          3D

 27 26  0  0  0  0  0  0  0  0999 V2000
   -2.5862   -1.1236    0.8743 C   0  0  0  0  0  0  0  0  0  0  0  0
   -2.6802   -0.4531   -0.4869 C   0  0  2  0  0  0  0  0  0  0  0  0
   -2.4558   -1.3269   -1.5270 O   0  0  0  0  0  0  0  0  0  0  0  0
   -1.8587    0.8054   -0.5611 C   0  0  1  0  0  0  0  0  0  0  0  0
   -2.1796    1.6249    0.5662 N   0  0  0  0  0  0  0  0  0  0  0  0
   -0.4122    0.5454   -0.7104 C   0  0  0  0  0  0  0  0  0  0  0  0
   -0.0481   -0.1677   -1.6779 O   0  0  0  0  0  0  0  0  0  0  0  0
    0.5765    1.0569    0.1768 N   0  0  0  0  0  0  0  0  0  0  0  0
    1.9884    0.8025    0.0299 C   0  0  0  0  0  0  0  0  0  0  0  0
    2.3345   -0.6613    0.0878 C   0  0  0  0  0  0  0  0  0  0  0  0
    3.8081   -0.7740   -0.0756 C   0  0  0  0  0  0  0  0  0  0  0  0
    4.3922   -1.8925   -0.0683 O   0  0  0  0  0  0  0  0  0  0  0  0
    4.6305    0.3434   -0.2462 O   0  0  0  0  0  0  0  0  0  0  0  0
   -1.5827   -1.5237    1.0809 H   0  0  0  0  0  0  0  0  0  0  0  0
   -2.8941   -0.3682    1.6309 H   0  0  0  0  0  0  0  0  0  0  0  0
   -3.3757   -1.9075    0.8970 H   0  0  0  0  0  0  0  0  0  0  0  0
   -3.7574   -0.1244   -0.5759 H   0  0  0  0  0  0  0  0  0  0  0  0
   -2.7786   -2.2346   -1.2309 H   0  0  0  0  0  0  0  0  0  0  0  0
   -2.1838    1.3480   -1.4808 H   0  0  0  0  0  0  0  0  0  0  0  0
   -1.8408    2.6007    0.3716 H   0  0  0  0  0  0  0  0  0  0  0  0
   -1.7655    1.3247    1.4605 H   0  0  0  0  0  0  0  0  0  0  0  0
    0.1877    1.6508    0.9692 H   0  0  0  0  0  0  0  0  0  0  0  0
    2.5045    1.2923    0.8810 H   0  0  0  0  0  0  0  0  0  0  0  0
    2.4220    1.2263   -0.8889 H   0  0  0  0  0  0  0  0  0  0  0  0
    1.8432   -1.1798   -0.7487 H   0  0  0  0  0  0  0  0  0  0  0  0
    2.0628   -1.1160    1.0585 H   0  0  0  0  0  0  0  0  0  0  0  0
    5.6487    0.2321   -0.3162 H   0  0  0  0  0  0  0  0  0  0  0  0
  1  2  1  0
  2  3  1  0
  2  4  1  0
  4  5  1  0
  4  6  1  0
  6  7  2  0
  6  8  1  0
  8  9  1  0
  9 10  1  0
 10 11  1  0
 11 12  2  0
 11 13  1  0
  1 14  1  0
  1 15  1  0
  1 16  1  0
  2 17  1  6
  3 18  1  0
  4 19  1  6
  5 20  1  0
  5 21  1  0
  8 22  1  0
  9 23  1  0
  9 24  1  0
 10 25  1  0
 10 26  1  0
 13 27  1  0
M  END
$$$$

     RDKit          3D

 27 26  0  0  0  0  0  0  0  0999 V2000
   -3.6477    0.8661   -0.1257 C   0  0  0  0  0  0  0  0  0  0  0  0
   -2.1449    0.6678   -0.2146 C   0  0  2  0  0  0  0  0  0  0  0  0
   -1.8436    0.5150   -1.5682 O   0  0  0  0  0  0  0  0  0  0  0  0
   -1.7060   -0.5691    0.5335 C   0  0  1  0  0  0  0  0  0  0  0  0
   -2.3695   -1.7418    0.0494 N   0  0  0  0  0  0  0  0  0  0  0  0
   -0.2521   -0.7573    0.5399 C   0  0  0  0  0  0  0  0  0  0  0  0
    0.2377   -1.8557    0.1582 O   0  0  0  0  0  0  0  0  0  0  0  0
    0.6167    0.2651    0.9634 N   0  0  0  0  0  0  0  0  0  0  0  0
    2.0426    0.1238    0.9854 C   0  0  0  0  0  0  0  0  0  0  0  0
    2.6158   -0.1519   -0.3678 C   0  0  0  0  0  0  0  0  0  0  0  0
    4.1070   -0.2802   -0.2369 C   0  0  0  0  0  0  0  0  0  0  0  0
    4.5909   -1.3105    0.2909 O   0  0  0  0  0  0  0  0  0  0  0  0
    4.8890    0.7452   -0.7036 O   0  0  0  0  0  0  0  0  0  0  0  0
   -3.9288    1.2681    0.8708 H   0  0  0  0  0  0  0  0  0  0  0  0
   -3.9151    1.6694   -0.8584 H   0  0  0  0  0  0  0  0  0  0  0  0
   -4.1736   -0.0854   -0.3764 H   0  0  0  0  0  0  0  0  0  0  0  0
   -1.6907    1.5775    0.1984 H   0  0  0  0  0  0  0  0  0  0  0  0
   -1.1049    1.1055   -1.8503 H   0  0  0  0  0  0  0  0  0  0  0  0
   -2.0172   -0.4406    1.5999 H   0  0  0  0  0  0  0  0  0  0  0  0
   -3.2511   -1.9515    0.5448 H   0  0  0  0  0  0  0  0  0  0  0  0
   -2.4752   -1.7645   -0.9854 H   0  0  0  0  0  0  0  0  0  0  0  0
    0.1789    1.1640    1.2764 H   0  0  0  0  0  0  0  0  0  0  0  0
    2.3580   -0.6813    1.6972 H   0  0  0  0  0  0  0  0  0  0  0  0
    2.5309    1.0595    1.3627 H   0  0  0  0  0  0  0  0  0  0  0  0
    2.3539    0.7140   -1.0276 H   0  0  0  0  0  0  0  0  0  0  0  0
    2.2286   -1.0914   -0.7572 H   0  0  0  0  0  0  0  0  0  0  0  0
    5.7704    0.9402   -0.2265 H   0  0  0  0  0  0  0  0  0  0  0  0
  1  2  1  0
  2  3  1  0
  2  4  1  0
  4  5  1  0
  4  6  1  0
  6  7  2  0
  6  8  1  0
  8  9  1  0
  9 10  1  0
 10 11  1  0
 11 12  2  0
 11 13  1  0
  1 14  1  0
  1 15  1  0
  1 16  1  0
  2 17  1  1
  3 18  1  0
  4 19  1  1
  5 20  1  0
  5 21  1  0
  8 22  1  0
  9 23  1  0
  9 24  1  0
 10 25  1  0
 10 26  1  0
 13 27  1  0
M  END
$$$$
