
     RDKit          3D

 23 23  0  0  0  0  0  0  0  0999 V2000
   -2.0214   -2.7671    0.0943 O   0  0  0  0  0  0  0  0  0  0  0  0
   -1.4419   -1.4627    0.4675 S   0  0  0  0  0  6  0  0  0  0  0  0
   -1.6189   -1.1107    1.9025 O   0  0  0  0  0  0  0  0  0  0  0  0
   -2.1113   -0.1191   -0.5095 C   0  0  0  0  0  0  0  0  0  0  0  0
   -1.4133    1.1301   -0.1104 C   0  0  0  0  0  0  0  0  0  0  0  0
    0.0774    1.0884   -0.2000 C   0  0  2  0  0  0  0  0  0  0  0  0
    0.5268    1.0867   -1.5296 O   0  0  0  0  0  0  0  0  0  0  0  0
    0.7155   -0.0008    0.5931 C   0  0  2  0  0  0  0  0  0  0  0  0
    2.2070    0.1750    0.5999 C   0  0  0  0  0  0  0  0  0  0  0  0
    2.7317    0.1375   -0.6896 O   0  0  0  0  0  0  0  0  0  0  0  0
    0.3162   -1.3797    0.1139 C   0  0  0  0  0  0  0  0  0  0  0  0
   -2.0036   -0.3757   -1.5794 H   0  0  0  0  0  0  0  0  0  0  0  0
   -3.1735   -0.0357   -0.2251 H   0  0  0  0  0  0  0  0  0  0  0  0
   -1.7678    1.9519   -0.7667 H   0  0  0  0  0  0  0  0  0  0  0  0
   -1.7098    1.3879    0.9198 H   0  0  0  0  0  0  0  0  0  0  0  0
    0.4483    2.0553    0.2304 H   0  0  0  0  0  0  0  0  0  0  0  0
    0.6652    2.0305   -1.8561 H   0  0  0  0  0  0  0  0  0  0  0  0
    0.3659    0.0852    1.6400 H   0  0  0  0  0  0  0  0  0  0  0  0
    2.4436    1.1415    1.0617 H   0  0  0  0  0  0  0  0  0  0  0  0
    2.6594   -0.6509    1.1632 H   0  0  0  0  0  0  0  0  0  0  0  0
    2.7892   -0.8222   -0.9771 H   0  0  0  0  0  0  0  0  0  0  0  0
    0.4405   -1.3954   -0.9829 H   0  0  0  0  0  0  0  0  0  0  0  0
    0.8746   -2.1499    0.6399 H   0  0  0  0  0  0  0  0  0  0  0  0
  1  2  2  0
  2  3  2  0
  2  4  1  0
  4  5  1  0
  5  6  1  0
  6  7  1  0
  6  8  1  0
  8  9  1  0
  9 10  1  0
  8 11  1  0
 11  2  1  0
  4 12  1  0
  4 13  1  0
  5 14  1  0
  5 15  1  0
  6 16  1  1
  7 17  1  0
  8 18  1  1
  9 19  1  0
  9 20  1  0
 10 21  1  0
 11 22  1  0
 11 23  1  0
M  END
$$$$

     RDKit          3D

 23 23  0  0  0  0  0  0  0  0999 V2000
    2.2329   -2.0765    1.1856 O   0  0  0  0  0  0  0  0  0  0  0  0
    1.6500   -1.1865    0.1508 S   0  0  0  0  0  6  0  0  0  0  0  0
    2.2670   -1.3755   -1.2055 O   0  0  0  0  0  0  0  0  0  0  0  0
    1.8832    0.5428    0.5901 C   0  0  0  0  0  0  0  0  0  0  0  0
    1.2279    1.2571   -0.5901 C   0  0  0  0  0  0  0  0  0  0  0  0
   -0.2379    1.1102   -0.4570 C   0  0  2  0  0  0  0  0  0  0  0  0
   -0.6252    1.7297    0.7522 O   0  0  0  0  0  0  0  0  0  0  0  0
   -0.8112   -0.2340   -0.5642 C   0  0  2  0  0  0  0  0  0  0  0  0
   -2.2115   -0.1651    0.0711 C   0  0  0  0  0  0  0  0  0  0  0  0
   -2.8257   -1.3946    0.0127 O   0  0  0  0  0  0  0  0  0  0  0  0
   -0.1090   -1.3634    0.0616 C   0  0  0  0  0  0  0  0  0  0  0  0
    2.9283    0.7982    0.7202 H   0  0  0  0  0  0  0  0  0  0  0  0
    1.2419    0.7068    1.4800 H   0  0  0  0  0  0  0  0  0  0  0  0
    1.6142    0.8014   -1.5296 H   0  0  0  0  0  0  0  0  0  0  0  0
    1.5052    2.3074   -0.5237 H   0  0  0  0  0  0  0  0  0  0  0  0
   -0.7090    1.7566   -1.2568 H   0  0  0  0  0  0  0  0  0  0  0  0
   -0.0392    2.5224    0.9050 H   0  0  0  0  0  0  0  0  0  0  0  0
   -1.0133   -0.4854   -1.6434 H   0  0  0  0  0  0  0  0  0  0  0  0
   -2.8093    0.6154   -0.3983 H   0  0  0  0  0  0  0  0  0  0  0  0
   -2.0877    0.1082    1.1575 H   0  0  0  0  0  0  0  0  0  0  0  0
   -2.3071   -2.0943    0.4455 H   0  0  0  0  0  0  0  0  0  0  0  0
   -0.3071   -2.3234   -0.4816 H   0  0  0  0  0  0  0  0  0  0  0  0
   -0.4574   -1.5574    1.1182 H   0  0  0  0  0  0  0  0  0  0  0  0
  1  2  2  0
  2  3  2  0
  2  4  1  0
  4  5  1  0
  5  6  1  0
  6  7  1  0
  6  8  1  0
  8  9  1  0
  9 10  1  0
  8 11  1  0
 11  2  1  0
  4 12  1  0
  4 13  1  0
  5 14  1  0
  5 15  1  0
  6 16  1  6
  7 17  1  0
  8 18  1  6
  9 19  1  0
  9 20  1  0
 10 21  1  0
 11 22  1  0
 11 23  1  0
M  END
$$$$

     RDKit          3D

 23 23  0  0  0  0  0  0  0  0999 V2000
   -2.2210   -1.6739   -1.9896 O   0  0  0  0  0  0  0  0  0  0  0  0
   -1.4786   -1.3302   -0.7623 S   0  0  0  0  0  6  0  0  0  0  0  0
   -1.2777   -2.5128    0.1530 O   0  0  0  0  0  0  0  0  0  0  0  0
   -2.2584    0.0097    0.1503 C   0  0  0  0  0  0  0  0  0  0  0  0
   -1.2905    1.1396    0.2785 C   0  0  0  0  0  0  0  0  0  0  0  0
    0.0159    0.7676    0.9020 C   0  0  2  0  0  0  0  0  0  0  0  0
    0.8387    1.9114    0.8467 O   0  0  0  0  0  0  0  0  0  0  0  0
    0.7371   -0.3446    0.2378 C   0  0  2  0  0  0  0  0  0  0  0  0
    2.2405   -0.1295    0.1574 C   0  0  0  0  0  0  0  0  0  0  0  0
    2.7883   -1.2465   -0.4872 O   0  0  0  0  0  0  0  0  0  0  0  0
    0.1648   -0.6915   -1.1231 C   0  0  0  0  0  0  0  0  0  0  0  0
   -3.0974    0.3712   -0.5055 H   0  0  0  0  0  0  0  0  0  0  0  0
   -2.6088   -0.3542    1.1147 H   0  0  0  0  0  0  0  0  0  0  0  0
   -1.7680    1.8993    0.9636 H   0  0  0  0  0  0  0  0  0  0  0  0
   -1.1911    1.6614   -0.6986 H   0  0  0  0  0  0  0  0  0  0  0  0
   -0.1520    0.5715    1.9821 H   0  0  0  0  0  0  0  0  0  0  0  0
    0.3396    2.7190    0.6052 H   0  0  0  0  0  0  0  0  0  0  0  0
    0.6068   -1.2637    0.8773 H   0  0  0  0  0  0  0  0  0  0  0  0
    2.6282   -0.0053    1.1760 H   0  0  0  0  0  0  0  0  0  0  0  0
    2.4718    0.7632   -0.4237 H   0  0  0  0  0  0  0  0  0  0  0  0
    3.7338   -1.0904   -0.7220 H   0  0  0  0  0  0  0  0  0  0  0  0
   -0.0060    0.2468   -1.7003 H   0  0  0  0  0  0  0  0  0  0  0  0
    0.7839   -1.4182   -1.6397 H   0  0  0  0  0  0  0  0  0  0  0  0
  1  2  2  0
  2  3  2  0
  2  4  1  0
  4  5  1  0
  5  6  1  0
  6  7  1  0
  6  8  1  0
  8  9  1  0
  9 10  1  0
  8 11  1  0
 11  2  1  0
  4 12  1  0
  4 13  1  0
  5 14  1  0
  5 15  1  0
  6 16  1  1
  7 17  1  0
  8 18  1  1
  9 19  1  0
  9 20  1  0
 10 21  1  0
 11 22  1  0
 11 23  1  0
M  END
$$$$

     RDKit          3D

 23 23  0  0  0  0  0  0  0  0999 V2000
   -1.3059   -2.5120    0.9801 O   0  0  0  0  0  0  0  0  0  0  0  0
   -1.4995   -1.4920   -0.0895 S   0  0  0  0  0  6  0  0  0  0  0  0
   -2.4533   -1.9486   -1.1471 O   0  0  0  0  0  0  0  0  0  0  0  0
   -2.0764    0.0675    0.5964 C   0  0  0  0  0  0  0  0  0  0  0  0
   -1.3639    1.1449   -0.2286 C   0  0  0  0  0  0  0  0  0  0  0  0
    0.0801    1.1956    0.2073 C   0  0  2  0  0  0  0  0  0  0  0  0
    0.7867    2.0911   -0.5845 O   0  0  0  0  0  0  0  0  0  0  0  0
    0.7535   -0.1386    0.2033 C   0  0  2  0  0  0  0  0  0  0  0  0
    2.2433   -0.0356   -0.0515 C   0  0  0  0  0  0  0  0  0  0  0  0
    2.7933   -1.3033   -0.0405 O   0  0  0  0  0  0  0  0  0  0  0  0
    0.1083   -1.1161   -0.7783 C   0  0  0  0  0  0  0  0  0  0  0  0
   -3.1673    0.1492    0.5217 H   0  0  0  0  0  0  0  0  0  0  0  0
   -1.6936    0.1620    1.6395 H   0  0  0  0  0  0  0  0  0  0  0  0
   -1.4093    0.8955   -1.3053 H   0  0  0  0  0  0  0  0  0  0  0  0
   -1.8123    2.1302   -0.0880 H   0  0  0  0  0  0  0  0  0  0  0  0
    0.0704    1.6141    1.2535 H   0  0  0  0  0  0  0  0  0  0  0  0
    0.6798    3.0075   -0.1930 H   0  0  0  0  0  0  0  0  0  0  0  0
    0.6099   -0.5949    1.2094 H   0  0  0  0  0  0  0  0  0  0  0  0
    2.3901    0.3733   -1.0805 H   0  0  0  0  0  0  0  0  0  0  0  0
    2.6687    0.6295    0.7091 H   0  0  0  0  0  0  0  0  0  0  0  0
    2.8260   -1.6446    0.8981 H   0  0  0  0  0  0  0  0  0  0  0  0
    0.7524   -1.9997   -0.8421 H   0  0  0  0  0  0  0  0  0  0  0  0
    0.0189   -0.6749   -1.7895 H   0  0  0  0  0  0  0  0  0  0  0  0
  1  2  2  0
  2  3  2  0
  2  4  1  0
  4  5  1  0
  5  6  1  0
  6  7  1  0
  6  8  1  0
  8  9  1  0
  9 10  1  0
  8 11  1  0
 11  2  1  0
  4 12  1  0
  4 13  1  0
  5 14  1  0
  5 15  1  0
  6 16  1  1
  7 17  1  0
  8 18  1  1
  9 19  1  0
  9 20  1  0
 10 21  1  0
 11 22  1  0
 11 23  1  0
M  END
$$$$

     RDKit          3D

 23 23  0  0  0  0  0  0  0  0999 V2000
   -2.5898   -0.2427   -2.1225 O   0  0  0  0  0  0  0  0  0  0  0  0
   -1.9462   -0.2660   -0.7648 S   0  0  0  0  0  6  0  0  0  0  0  0
   -2.9230   -0.8313    0.1990 O   0  0  0  0  0  0  0  0  0  0  0  0
   -1.4594    1.3954   -0.3281 C   0  0  0  0  0  0  0  0  0  0  0  0
   -0.3114    1.3768    0.6291 C   0  0  0  0  0  0  0  0  0  0  0  0
   -0.0443    0.0275    1.1923 C   0  0  2  0  0  0  0  0  0  0  0  0
    0.7240    0.0892    2.3596 O   0  0  0  0  0  0  0  0  0  0  0  0
    0.4913   -0.9777    0.2377 C   0  0  2  0  0  0  0  0  0  0  0  0
    1.8700   -0.7105   -0.2689 C   0  0  0  0  0  0  0  0  0  0  0  0
    2.0357    0.4586   -0.9420 O   0  0  0  0  0  0  0  0  0  0  0  0
   -0.4601   -1.2245   -0.8919 C   0  0  0  0  0  0  0  0  0  0  0  0
   -1.1580    1.8801   -1.3030 H   0  0  0  0  0  0  0  0  0  0  0  0
   -2.3241    1.9958    0.0296 H   0  0  0  0  0  0  0  0  0  0  0  0
   -0.6094    2.0354    1.4984 H   0  0  0  0  0  0  0  0  0  0  0  0
    0.5495    1.8775    0.1694 H   0  0  0  0  0  0  0  0  0  0  0  0
   -1.0419   -0.3672    1.5423 H   0  0  0  0  0  0  0  0  0  0  0  0
    1.6820    0.2057    2.1877 H   0  0  0  0  0  0  0  0  0  0  0  0
    0.5574   -1.9526    0.8108 H   0  0  0  0  0  0  0  0  0  0  0  0
    2.6378   -0.7681    0.5333 H   0  0  0  0  0  0  0  0  0  0  0  0
    2.1235   -1.5495   -0.9711 H   0  0  0  0  0  0  0  0  0  0  0  0
    2.9522    0.7960   -0.9215 H   0  0  0  0  0  0  0  0  0  0  0  0
   -0.7594   -2.2898   -0.9934 H   0  0  0  0  0  0  0  0  0  0  0  0
    0.0033   -0.9583   -1.8823 H   0  0  0  0  0  0  0  0  0  0  0  0
  1  2  2  0
  2  3  2  0
  2  4  1  0
  4  5  1  0
  5  6  1  0
  6  7  1  0
  6  8  1  0
  8  9  1  0
  9 10  1  0
  8 11  1  0
 11  2  1  0
  4 12  1  0
  4 13  1  0
  5 14  1  0
  5 15  1  0
  6 16  1  1
  7 17  1  0
  8 18  1  1
  9 19  1  0
  9 20  1  0
 10 21  1  0
 11 22  1  0
 11 23  1  0
M  END
$$$$

     RDKit          3D

 23 23  0  0  0  0  0  0  0  0999 V2000
   -2.4084    1.5242   -1.3768 O   0  0  0  0  0  0  0  0  0  0  0  0
   -1.6384    1.3549   -0.1006 S   0  0  0  0  0  6  0  0  0  0  0  0
   -2.0010    2.5100    0.7903 O   0  0  0  0  0  0  0  0  0  0  0  0
   -2.0718   -0.1439    0.7457 C   0  0  0  0  0  0  0  0  0  0  0  0
   -0.7730   -0.9145    0.9651 C   0  0  0  0  0  0  0  0  0  0  0  0
   -0.1343   -1.0719   -0.3971 C   0  0  2  0  0  0  0  0  0  0  0  0
    0.6387   -2.2329   -0.4706 O   0  0  0  0  0  0  0  0  0  0  0  0
    0.6925    0.1107   -0.7916 C   0  0  2  0  0  0  0  0  0  0  0  0
    2.1161    0.0078   -0.2493 C   0  0  0  0  0  0  0  0  0  0  0  0
    2.1123   -0.0604    1.1466 O   0  0  0  0  0  0  0  0  0  0  0  0
    0.1110    1.4198   -0.3709 C   0  0  0  0  0  0  0  0  0  0  0  0
   -2.5025    0.0282    1.7384 H   0  0  0  0  0  0  0  0  0  0  0  0
   -2.7196   -0.7559    0.0918 H   0  0  0  0  0  0  0  0  0  0  0  0
   -0.1621   -0.2696    1.6460 H   0  0  0  0  0  0  0  0  0  0  0  0
   -0.9626   -1.9151    1.4100 H   0  0  0  0  0  0  0  0  0  0  0  0
   -0.9406   -1.1804   -1.1656 H   0  0  0  0  0  0  0  0  0  0  0  0
    0.5885   -2.6632   -1.3582 H   0  0  0  0  0  0  0  0  0  0  0  0
    0.8117    0.0598   -1.9129 H   0  0  0  0  0  0  0  0  0  0  0  0
    2.6788   -0.8198   -0.7023 H   0  0  0  0  0  0  0  0  0  0  0  0
    2.6376    0.9606   -0.5133 H   0  0  0  0  0  0  0  0  0  0  0  0
    3.0248    0.0498    1.4670 H   0  0  0  0  0  0  0  0  0  0  0  0
    0.5725    1.8030    0.5605 H   0  0  0  0  0  0  0  0  0  0  0  0
    0.3295    2.1987   -1.1523 H   0  0  0  0  0  0  0  0  0  0  0  0
  1  2  2  0
  2  3  2  0
  2  4  1  0
  4  5  1  0
  5  6  1  0
  6  7  1  0
  6  8  1  0
  8  9  1  0
  9 10  1  0
  8 11  1  0
 11  2  1  0
  4 12  1  0
  4 13  1  0
  5 14  1  0
  5 15  1  0
  6 16  1  6
  7 17  1  0
  8 18  1  6
  9 19  1  0
  9 20  1  0
 10 21  1  0
 11 22  1  0
 11 23  1  0
M  END
$$$$

     RDKit          3D

 23 23  0  0  0  0  0  0  0  0999 V2000
   -1.2133    2.9996   -1.0397 O   0  0  0  0  0  0  0  0  0  0  0  0
   -0.5477    1.9352   -0.2035 S   0  0  0  0  0  6  0  0  0  0  0  0
    0.2199    2.6448    0.8969 O   0  0  0  0  0  0  0  0  0  0  0  0
   -1.8173    0.9739    0.6223 C   0  0  0  0  0  0  0  0  0  0  0  0
   -1.0651   -0.2661    1.1268 C   0  0  0  0  0  0  0  0  0  0  0  0
   -0.6294   -1.0362   -0.0620 C   0  0  2  0  0  0  0  0  0  0  0  0
   -0.3053   -2.3420    0.3745 O   0  0  0  0  0  0  0  0  0  0  0  0
    0.5189   -0.5124   -0.8174 C   0  0  2  0  0  0  0  0  0  0  0  0
    1.8618   -0.8635   -0.1599 C   0  0  0  0  0  0  0  0  0  0  0  0
    1.9152   -0.3303    1.1092 O   0  0  0  0  0  0  0  0  0  0  0  0
    0.5191    0.9279   -1.1524 C   0  0  0  0  0  0  0  0  0  0  0  0
   -2.2917    1.5297    1.4257 H   0  0  0  0  0  0  0  0  0  0  0  0
   -2.5658    0.6642   -0.1324 H   0  0  0  0  0  0  0  0  0  0  0  0
   -0.2800    0.0695    1.8003 H   0  0  0  0  0  0  0  0  0  0  0  0
   -1.8039   -0.8884    1.6907 H   0  0  0  0  0  0  0  0  0  0  0  0
   -1.5049   -1.1245   -0.7557 H   0  0  0  0  0  0  0  0  0  0  0  0
   -0.9099   -3.0100   -0.0553 H   0  0  0  0  0  0  0  0  0  0  0  0
    0.5534   -1.0836   -1.7956 H   0  0  0  0  0  0  0  0  0  0  0  0
    2.6719   -0.4557   -0.8057 H   0  0  0  0  0  0  0  0  0  0  0  0
    1.9827   -1.9695   -0.1611 H   0  0  0  0  0  0  0  0  0  0  0  0
    2.8636   -0.3322    1.3904 H   0  0  0  0  0  0  0  0  0  0  0  0
    1.5586    1.3628   -1.0553 H   0  0  0  0  0  0  0  0  0  0  0  0
    0.2692    1.1067   -2.2409 H   0  0  0  0  0  0  0  0  0  0  0  0
  1  2  2  0
  2  3  2  0
  2  4  1  0
  4  5  1  0
  5  6  1  0
  6  7  1  0
  6  8  1  0
  8  9  1  0
  9 10  1  0
  8 11  1  0
 11  2  1  0
  4 12  1  0
  4 13  1  0
  5 14  1  0
  5 15  1  0
  6 16  1  6
  7 17  1  0
  8 18  1  6
  9 19  1  0
  9 20  1  0
 10 21  1  0
 11 22  1  0
 11 23  1  0
M  END
$$$$

     RDKit          3D

 23 23  0  0  0  0  0  0  0  0999 V2000
   -1.2376   -2.5759    1.1008 O   0  0  0  0  0  0  0  0  0  0  0  0
   -1.0727   -1.6966   -0.1304 S   0  0  0  0  0  6  0  0  0  0  0  0
   -1.5289   -2.4471   -1.3279 O   0  0  0  0  0  0  0  0  0  0  0  0
   -2.1740   -0.3053    0.1244 C   0  0  0  0  0  0  0  0  0  0  0  0
   -1.3722    0.6954    0.9477 C   0  0  0  0  0  0  0  0  0  0  0  0
   -0.2286    1.1549    0.0635 C   0  0  2  0  0  0  0  0  0  0  0  0
   -0.6518    1.2937   -1.2467 O   0  0  0  0  0  0  0  0  0  0  0  0
    0.8880    0.1758    0.2051 C   0  0  2  0  0  0  0  0  0  0  0  0
    2.1471    0.6965   -0.4483 C   0  0  0  0  0  0  0  0  0  0  0  0
    3.1637   -0.2513   -0.2913 O   0  0  0  0  0  0  0  0  0  0  0  0
    0.5981   -1.1846   -0.3196 C   0  0  0  0  0  0  0  0  0  0  0  0
   -3.0546   -0.6467    0.6807 H   0  0  0  0  0  0  0  0  0  0  0  0
   -2.4319    0.0969   -0.8755 H   0  0  0  0  0  0  0  0  0  0  0  0
   -1.0103    0.1317    1.8389 H   0  0  0  0  0  0  0  0  0  0  0  0
   -1.9850    1.5218    1.3249 H   0  0  0  0  0  0  0  0  0  0  0  0
    0.1483    2.1470    0.4053 H   0  0  0  0  0  0  0  0  0  0  0  0
   -0.9069    2.2501   -1.4345 H   0  0  0  0  0  0  0  0  0  0  0  0
    1.1213    0.0966    1.3020 H   0  0  0  0  0  0  0  0  0  0  0  0
    2.4597    1.6364    0.0765 H   0  0  0  0  0  0  0  0  0  0  0  0
    1.9555    0.9556   -1.4924 H   0  0  0  0  0  0  0  0  0  0  0  0
    3.0648   -0.6058    0.6265 H   0  0  0  0  0  0  0  0  0  0  0  0
    0.8744   -1.2284   -1.3862 H   0  0  0  0  0  0  0  0  0  0  0  0
    1.2336   -1.9104    0.2563 H   0  0  0  0  0  0  0  0  0  0  0  0
  1  2  2  0
  2  3  2  0
  2  4  1  0
  4  5  1  0
  5  6  1  0
  6  7  1  0
  6  8  1  0
  8  9  1  0
  9 10  1  0
  8 11  1  0
 11  2  1  0
  4 12  1  0
  4 13  1  0
  5 14  1  0
  5 15  1  0
  6 16  1  1
  7 17  1  0
  8 18  1  1
  9 19  1  0
  9 20  1  0
 10 21  1  0
 11 22  1  0
 11 23  1  0
M  END
$$$$
