
     RDKit          3D

 23 22  0  0  0  0  0  0  0  0999 V2000
    4.3953    1.0344    0.6992 C   0  0  0  0  0  0  0  0  0  0  0  0
    3.0741    0.6531    0.9174 O   0  0  0  0  0  0  0  0  0  0  0  0
    2.4980    0.1492   -0.2473 C   0  0  0  0  0  0  0  0  0  0  0  0
    1.0908   -0.2551   -0.0081 C   0  0  0  0  0  0  0  0  0  0  0  0
    0.6268   -0.1132    1.0973 O   0  0  0  0  0  0  0  0  0  0  0  0
    0.2788   -0.8205   -1.1086 C   0  0  0  0  0  0  0  0  0  0  0  0
   -1.3603   -1.2466   -0.6627 S   0  0  0  0  0  4  0  0  0  0  0  0
   -2.0316   -2.2701   -1.5033 O   0  0  0  0  0  0  0  0  0  0  0  0
   -2.3714    0.0549   -0.0654 C   0  0  0  0  0  0  0  0  0  0  0  0
   -3.7211   -0.4637    0.2669 C   0  0  0  0  0  0  0  0  0  0  0  0
   -4.7518    0.3694    0.7740 N   0  0  0  0  0  0  0  0  0  0  0  0
   -3.9887   -1.6977    0.0996 O   0  0  0  0  0  0  0  0  0  0  0  0
    4.3894    1.8238   -0.0896 H   0  0  0  0  0  0  0  0  0  0  0  0
    4.9995    0.1989    0.2924 H   0  0  0  0  0  0  0  0  0  0  0  0
    4.8458    1.4560    1.6054 H   0  0  0  0  0  0  0  0  0  0  0  0
    2.5796    0.9528   -1.0093 H   0  0  0  0  0  0  0  0  0  0  0  0
    3.0720   -0.7094   -0.6251 H   0  0  0  0  0  0  0  0  0  0  0  0
    0.8085   -1.7542   -1.4390 H   0  0  0  0  0  0  0  0  0  0  0  0
    0.2583   -0.1072   -1.9594 H   0  0  0  0  0  0  0  0  0  0  0  0
   -2.5069    0.8737   -0.8212 H   0  0  0  0  0  0  0  0  0  0  0  0
   -1.9430    0.5318    0.8557 H   0  0  0  0  0  0  0  0  0  0  0  0
   -5.5580    0.6359    0.1761 H   0  0  0  0  0  0  0  0  0  0  0  0
   -4.6839    0.7039    1.7462 H   0  0  0  0  0  0  0  0  0  0  0  0
  1  2  1  0
  2  3  1  0
  3  4  1  0
  4  5  2  0
  4  6  1  0
  7  6  1  1
  7  8  2  0
  7  9  1  0
  9 10  1  0
 10 11  1  0
 10 12  2  0
  1 13  1  0
  1 14  1  0
  1 15  1  0
  3 16  1  0
  3 17  1  0
  6 18  1  0
  6 19  1  0
  9 20  1  0
  9 21  1  0
 11 22  1  0
 11 23  1  0
M  END
$$$$

     RDKit          3D

 23 22  0  0  0  0  0  0  0  0999 V2000
    3.8057    0.5817    0.8702 C   0  0  0  0  0  0  0  0  0  0  0  0
    2.4388    0.6050    0.7302 O   0  0  0  0  0  0  0  0  0  0  0  0
    2.0045   -0.7110    0.4786 C   0  0  0  0  0  0  0  0  0  0  0  0
    0.5253   -0.7422    0.3379 C   0  0  0  0  0  0  0  0  0  0  0  0
   -0.0691   -1.7795    0.1632 O   0  0  0  0  0  0  0  0  0  0  0  0
   -0.2918    0.5273    0.4071 C   0  0  0  0  0  0  0  0  0  0  0  0
   -1.0616    0.7853   -1.1773 S   0  0  0  0  0  4  0  0  0  0  0  0
   -0.0597    1.0804   -2.2761 O   0  0  0  0  0  0  0  0  0  0  0  0
   -2.1410   -0.5628   -1.6182 C   0  0  0  0  0  0  0  0  0  0  0  0
   -3.2338   -0.7285   -0.6431 C   0  0  0  0  0  0  0  0  0  0  0  0
   -3.4558    0.1065    0.4752 N   0  0  0  0  0  0  0  0  0  0  0  0
   -4.0338   -1.7002   -0.8328 O   0  0  0  0  0  0  0  0  0  0  0  0
    4.2051    1.6097    1.0760 H   0  0  0  0  0  0  0  0  0  0  0  0
    4.0924   -0.0878    1.7309 H   0  0  0  0  0  0  0  0  0  0  0  0
    4.2877    0.1824   -0.0438 H   0  0  0  0  0  0  0  0  0  0  0  0
    2.5386   -1.0725   -0.4246 H   0  0  0  0  0  0  0  0  0  0  0  0
    2.3603   -1.3534    1.3239 H   0  0  0  0  0  0  0  0  0  0  0  0
   -1.0606    0.4232    1.1876 H   0  0  0  0  0  0  0  0  0  0  0  0
    0.3947    1.3733    0.6569 H   0  0  0  0  0  0  0  0  0  0  0  0
   -2.5552   -0.4349   -2.6459 H   0  0  0  0  0  0  0  0  0  0  0  0
   -1.5894   -1.5526   -1.6130 H   0  0  0  0  0  0  0  0  0  0  0  0
   -3.1923    1.1111    0.4771 H   0  0  0  0  0  0  0  0  0  0  0  0
   -3.9091   -0.2725    1.3601 H   0  0  0  0  0  0  0  0  0  0  0  0
  1  2  1  0
  2  3  1  0
  3  4  1  0
  4  5  2  0
  4  6  1  0
  7  6  1  1
  7  8  2  0
  7  9  1  0
  9 10  1  0
 10 11  1  0
 10 12  2  0
  1 13  1  0
  1 14  1  0
  1 15  1  0
  3 16  1  0
  3 17  1  0
  6 18  1  0
  6 19  1  0
  9 20  1  0
  9 21  1  0
 11 22  1  0
 11 23  1  0
M  END
$$$$

     RDKit          3D

 23 22  0  0  0  0  0  0  0  0999 V2000
    4.3156   -0.8010   -0.3825 C   0  0  0  0  0  0  0  0  0  0  0  0
    2.9835   -0.9846    0.0291 O   0  0  0  0  0  0  0  0  0  0  0  0
    2.3502    0.2411   -0.1118 C   0  0  0  0  0  0  0  0  0  0  0  0
    0.9323    0.2058    0.2853 C   0  0  0  0  0  0  0  0  0  0  0  0
    0.4163   -0.8203    0.6895 O   0  0  0  0  0  0  0  0  0  0  0  0
    0.1430    1.4601    0.1799 C   0  0  0  0  0  0  0  0  0  0  0  0
   -1.5604    1.2335    0.7043 S   0  0  0  0  0  4  0  0  0  0  0  0
   -1.5302    0.7836    2.1556 O   0  0  0  0  0  0  0  0  0  0  0  0
   -2.3193   -0.0155   -0.3475 C   0  0  0  0  0  0  0  0  0  0  0  0
   -3.7271   -0.2249    0.0609 C   0  0  0  0  0  0  0  0  0  0  0  0
   -4.5224   -1.1693   -0.6333 N   0  0  0  0  0  0  0  0  0  0  0  0
   -4.2075    0.4269    1.0101 O   0  0  0  0  0  0  0  0  0  0  0  0
    4.9043   -1.7382   -0.3034 H   0  0  0  0  0  0  0  0  0  0  0  0
    4.8289   -0.0525    0.2672 H   0  0  0  0  0  0  0  0  0  0  0  0
    4.3660   -0.3904   -1.4188 H   0  0  0  0  0  0  0  0  0  0  0  0
    2.4952    0.5478   -1.1831 H   0  0  0  0  0  0  0  0  0  0  0  0
    2.9309    0.9772    0.4987 H   0  0  0  0  0  0  0  0  0  0  0  0
    0.6468    2.2059    0.8321 H   0  0  0  0  0  0  0  0  0  0  0  0
    0.2078    1.8067   -0.8649 H   0  0  0  0  0  0  0  0  0  0  0  0
   -1.7282   -0.9526   -0.2311 H   0  0  0  0  0  0  0  0  0  0  0  0
   -2.2942    0.2796   -1.4115 H   0  0  0  0  0  0  0  0  0  0  0  0
   -4.2521   -1.4736   -1.5743 H   0  0  0  0  0  0  0  0  0  0  0  0
   -5.3793   -1.5456   -0.1744 H   0  0  0  0  0  0  0  0  0  0  0  0
  1  2  1  0
  2  3  1  0
  3  4  1  0
  4  5  2  0
  4  6  1  0
  7  6  1  1
  7  8  2  0
  7  9  1  0
  9 10  1  0
 10 11  1  0
 10 12  2  0
  1 13  1  0
  1 14  1  0
  1 15  1  0
  3 16  1  0
  3 17  1  0
  6 18  1  0
  6 19  1  0
  9 20  1  0
  9 21  1  0
 11 22  1  0
 11 23  1  0
M  END
$$$$

     RDKit          3D

 23 22  0  0  0  0  0  0  0  0999 V2000
    4.2080    0.1408   -0.7318 C   0  0  0  0  0  0  0  0  0  0  0  0
    3.2843   -0.1385    0.2865 O   0  0  0  0  0  0  0  0  0  0  0  0
    2.0066    0.3407   -0.0347 C   0  0  0  0  0  0  0  0  0  0  0  0
    1.1191    0.0429    1.1206 C   0  0  0  0  0  0  0  0  0  0  0  0
    1.5597   -0.5177    2.1356 O   0  0  0  0  0  0  0  0  0  0  0  0
   -0.3276    0.3964    1.1294 C   0  0  0  0  0  0  0  0  0  0  0  0
   -1.2969   -1.0827    1.0732 S   0  0  0  0  0  4  0  0  0  0  0  0
   -0.8280   -2.0667    0.0305 O   0  0  0  0  0  0  0  0  0  0  0  0
   -3.0400   -0.8404    1.0723 C   0  0  0  0  0  0  0  0  0  0  0  0
   -3.5173   -0.0577   -0.0785 C   0  0  0  0  0  0  0  0  0  0  0  0
   -2.6934    0.4346   -1.0899 N   0  0  0  0  0  0  0  0  0  0  0  0
   -4.7819    0.1670   -0.1180 O   0  0  0  0  0  0  0  0  0  0  0  0
    4.2974    1.2437   -0.8734 H   0  0  0  0  0  0  0  0  0  0  0  0
    5.1839   -0.2428   -0.4103 H   0  0  0  0  0  0  0  0  0  0  0  0
    3.9430   -0.3377   -1.6928 H   0  0  0  0  0  0  0  0  0  0  0  0
    1.6191   -0.1327   -0.9708 H   0  0  0  0  0  0  0  0  0  0  0  0
    2.0526    1.4488   -0.1717 H   0  0  0  0  0  0  0  0  0  0  0  0
   -0.5152    1.0855    0.2572 H   0  0  0  0  0  0  0  0  0  0  0  0
   -0.5855    0.9885    2.0388 H   0  0  0  0  0  0  0  0  0  0  0  0
   -3.5727   -1.8349    1.1036 H   0  0  0  0  0  0  0  0  0  0  0  0
   -3.3348   -0.3531    2.0448 H   0  0  0  0  0  0  0  0  0  0  0  0
   -2.9787    1.3320   -1.5658 H   0  0  0  0  0  0  0  0  0  0  0  0
   -1.8015   -0.0163   -1.4192 H   0  0  0  0  0  0  0  0  0  0  0  0
  1  2  1  0
  2  3  1  0
  3  4  1  0
  4  5  2  0
  4  6  1  0
  7  6  1  1
  7  8  2  0
  7  9  1  0
  9 10  1  0
 10 11  1  0
 10 12  2  0
  1 13  1  0
  1 14  1  0
  1 15  1  0
  3 16  1  0
  3 17  1  0
  6 18  1  0
  6 19  1  0
  9 20  1  0
  9 21  1  0
 11 22  1  0
 11 23  1  0
M  END
$$$$

     RDKit          3D

 23 22  0  0  0  0  0  0  0  0999 V2000
   -3.6659   -0.9097   -0.3042 C   0  0  0  0  0  0  0  0  0  0  0  0
   -3.2406   -0.0443    0.6370 O   0  0  0  0  0  0  0  0  0  0  0  0
   -2.3544    0.9233    0.3979 C   0  0  0  0  0  0  0  0  0  0  0  0
   -1.0090    0.5817   -0.0847 C   0  0  0  0  0  0  0  0  0  0  0  0
   -0.1742    1.5068   -0.1931 O   0  0  0  0  0  0  0  0  0  0  0  0
   -0.5040   -0.7486   -0.4653 C   0  0  0  0  0  0  0  0  0  0  0  0
    1.3046   -0.7240   -0.7202 S   0  0  0  0  0  4  0  0  0  0  0  0
    1.5804    0.3205   -1.8067 O   0  0  0  0  0  0  0  0  0  0  0  0
    2.0486   -0.2123    0.8442 C   0  0  0  0  0  0  0  0  0  0  0  0
    3.5139   -0.1805    0.6755 C   0  0  0  0  0  0  0  0  0  0  0  0
    4.1645    1.0300    0.3425 N   0  0  0  0  0  0  0  0  0  0  0  0
    4.2010   -1.2292    0.8271 O   0  0  0  0  0  0  0  0  0  0  0  0
   -4.4461   -1.5741    0.2084 H   0  0  0  0  0  0  0  0  0  0  0  0
   -4.1670   -0.5140   -1.1900 H   0  0  0  0  0  0  0  0  0  0  0  0
   -2.9286   -1.6691   -0.6550 H   0  0  0  0  0  0  0  0  0  0  0  0
   -2.7266    1.7461   -0.2717 H   0  0  0  0  0  0  0  0  0  0  0  0
   -2.2009    1.4694    1.3945 H   0  0  0  0  0  0  0  0  0  0  0  0
   -0.6997   -1.4555    0.3411 H   0  0  0  0  0  0  0  0  0  0  0  0
   -0.8905   -1.0541   -1.4693 H   0  0  0  0  0  0  0  0  0  0  0  0
    1.7421   -0.9976    1.5820 H   0  0  0  0  0  0  0  0  0  0  0  0
    1.6066    0.7411    1.1809 H   0  0  0  0  0  0  0  0  0  0  0  0
    3.6452    1.8996    0.0478 H   0  0  0  0  0  0  0  0  0  0  0  0
    5.2004    1.0944    0.3820 H   0  0  0  0  0  0  0  0  0  0  0  0
  1  2  1  0
  2  3  1  0
  3  4  1  0
  4  5  2  0
  4  6  1  0
  7  6  1  1
  7  8  2  0
  7  9  1  0
  9 10  1  0
 10 11  1  0
 10 12  2  0
  1 13  1  0
  1 14  1  0
  1 15  1  0
  3 16  1  0
  3 17  1  0
  6 18  1  0
  6 19  1  0
  9 20  1  0
  9 21  1  0
 11 22  1  0
 11 23  1  0
M  END
$$$$

     RDKit          3D

 23 22  0  0  0  0  0  0  0  0999 V2000
    3.8045    0.0529    0.8146 C   0  0  0  0  0  0  0  0  0  0  0  0
    2.5507    0.3003    0.2204 O   0  0  0  0  0  0  0  0  0  0  0  0
    2.5793   -0.1100   -1.1072 C   0  0  0  0  0  0  0  0  0  0  0  0
    1.2468    0.1962   -1.7349 C   0  0  0  0  0  0  0  0  0  0  0  0
    1.1005   -0.1172   -2.8963 O   0  0  0  0  0  0  0  0  0  0  0  0
    0.1537    0.8513   -0.9793 C   0  0  0  0  0  0  0  0  0  0  0  0
   -1.0679   -0.3907   -0.5125 S   0  0  0  0  0  4  0  0  0  0  0  0
   -0.3905   -1.4756    0.3180 O   0  0  0  0  0  0  0  0  0  0  0  0
   -2.4211    0.3629    0.3983 C   0  0  0  0  0  0  0  0  0  0  0  0
   -3.4047   -0.7031    0.7531 C   0  0  0  0  0  0  0  0  0  0  0  0
   -4.6163   -0.3102    1.4349 N   0  0  0  0  0  0  0  0  0  0  0  0
   -3.2328   -1.8970    0.4879 O   0  0  0  0  0  0  0  0  0  0  0  0
    3.7362    0.3882    1.8538 H   0  0  0  0  0  0  0  0  0  0  0  0
    4.0894   -0.9886    0.6564 H   0  0  0  0  0  0  0  0  0  0  0  0
    4.5396    0.7102    0.2571 H   0  0  0  0  0  0  0  0  0  0  0  0
    2.7320   -1.2180   -1.1969 H   0  0  0  0  0  0  0  0  0  0  0  0
    3.3883    0.4218   -1.6614 H   0  0  0  0  0  0  0  0  0  0  0  0
    0.5522    1.3215   -0.0297 H   0  0  0  0  0  0  0  0  0  0  0  0
   -0.3236    1.6448   -1.5734 H   0  0  0  0  0  0  0  0  0  0  0  0
   -2.8857    1.1585   -0.2130 H   0  0  0  0  0  0  0  0  0  0  0  0
   -2.0527    0.8671    1.3335 H   0  0  0  0  0  0  0  0  0  0  0  0
   -4.9438   -0.9284    2.1891 H   0  0  0  0  0  0  0  0  0  0  0  0
   -5.1341    0.5457    1.1874 H   0  0  0  0  0  0  0  0  0  0  0  0
  1  2  1  0
  2  3  1  0
  3  4  1  0
  4  5  2  0
  4  6  1  0
  7  6  1  1
  7  8  2  0
  7  9  1  0
  9 10  1  0
 10 11  1  0
 10 12  2  0
  1 13  1  0
  1 14  1  0
  1 15  1  0
  3 16  1  0
  3 17  1  0
  6 18  1  0
  6 19  1  0
  9 20  1  0
  9 21  1  0
 11 22  1  0
 11 23  1  0
M  END
$$$$

     RDKit          3D

 23 22  0  0  0  0  0  0  0  0999 V2000
    4.1275    1.1480   -0.0285 C   0  0  0  0  0  0  0  0  0  0  0  0
    3.7101   -0.0521   -0.5332 O   0  0  0  0  0  0  0  0  0  0  0  0
    2.5845   -0.5835    0.0262 C   0  0  0  0  0  0  0  0  0  0  0  0
    1.3917    0.2611   -0.1643 C   0  0  0  0  0  0  0  0  0  0  0  0
    1.3772    1.3178   -0.8021 O   0  0  0  0  0  0  0  0  0  0  0  0
    0.0560   -0.1020    0.4230 C   0  0  0  0  0  0  0  0  0  0  0  0
   -1.0651   -0.3902   -0.9316 S   0  0  0  0  0  4  0  0  0  0  0  0
   -0.5292   -1.3877   -1.9316 O   0  0  0  0  0  0  0  0  0  0  0  0
   -2.7132   -0.8295   -0.3584 C   0  0  0  0  0  0  0  0  0  0  0  0
   -3.2910    0.2408    0.4720 C   0  0  0  0  0  0  0  0  0  0  0  0
   -4.5955    0.0537    1.0037 N   0  0  0  0  0  0  0  0  0  0  0  0
   -2.6744    1.3003    0.7216 O   0  0  0  0  0  0  0  0  0  0  0  0
    3.4071    1.9741   -0.1204 H   0  0  0  0  0  0  0  0  0  0  0  0
    5.0649    1.5198   -0.5451 H   0  0  0  0  0  0  0  0  0  0  0  0
    4.4268    0.9712    1.0386 H   0  0  0  0  0  0  0  0  0  0  0  0
    2.7207   -0.8031    1.1299 H   0  0  0  0  0  0  0  0  0  0  0  0
    2.4077   -1.5815   -0.4451 H   0  0  0  0  0  0  0  0  0  0  0  0
    0.1425   -1.0303    1.0313 H   0  0  0  0  0  0  0  0  0  0  0  0
   -0.3344    0.6884    1.0604 H   0  0  0  0  0  0  0  0  0  0  0  0
   -2.7660   -1.8071    0.1297 H   0  0  0  0  0  0  0  0  0  0  0  0
   -3.3556   -0.8887   -1.2724 H   0  0  0  0  0  0  0  0  0  0  0  0
   -4.6857    0.1744    2.0289 H   0  0  0  0  0  0  0  0  0  0  0  0
   -5.4064   -0.1938    0.3670 H   0  0  0  0  0  0  0  0  0  0  0  0
  1  2  1  0
  2  3  1  0
  3  4  1  0
  4  5  2  0
  4  6  1  0
  7  6  1  1
  7  8  2  0
  7  9  1  0
  9 10  1  0
 10 11  1  0
 10 12  2  0
  1 13  1  0
  1 14  1  0
  1 15  1  0
  3 16  1  0
  3 17  1  0
  6 18  1  0
  6 19  1  0
  9 20  1  0
  9 21  1  0
 11 22  1  0
 11 23  1  0
M  END
$$$$

     RDKit          3D

 23 22  0  0  0  0  0  0  0  0999 V2000
    4.3267   -0.2744    0.2466 C   0  0  0  0  0  0  0  0  0  0  0  0
    3.8245   -0.7326   -0.9391 O   0  0  0  0  0  0  0  0  0  0  0  0
    2.6149   -0.2483   -1.3300 C   0  0  0  0  0  0  0  0  0  0  0  0
    1.5389   -0.5863   -0.3996 C   0  0  0  0  0  0  0  0  0  0  0  0
    1.7136   -1.2563    0.5895 O   0  0  0  0  0  0  0  0  0  0  0  0
    0.1656   -0.0714   -0.7005 C   0  0  0  0  0  0  0  0  0  0  0  0
   -0.9887   -0.5948    0.5505 S   0  0  0  0  0  4  0  0  0  0  0  0
   -0.9612   -2.0743    0.8018 O   0  0  0  0  0  0  0  0  0  0  0  0
   -2.6201    0.0249    0.1805 C   0  0  0  0  0  0  0  0  0  0  0  0
   -3.6243   -0.3741    1.1802 C   0  0  0  0  0  0  0  0  0  0  0  0
   -4.9619    0.0631    0.9884 N   0  0  0  0  0  0  0  0  0  0  0  0
   -3.3678   -1.0763    2.1895 O   0  0  0  0  0  0  0  0  0  0  0  0
    4.4471    0.8509    0.2047 H   0  0  0  0  0  0  0  0  0  0  0  0
    3.8024   -0.5766    1.1559 H   0  0  0  0  0  0  0  0  0  0  0  0
    5.3650   -0.6892    0.3553 H   0  0  0  0  0  0  0  0  0  0  0  0
    2.3660   -0.6867   -2.3426 H   0  0  0  0  0  0  0  0  0  0  0  0
    2.6650    0.8696   -1.4820 H   0  0  0  0  0  0  0  0  0  0  0  0
   -0.1639   -0.4594   -1.6674 H   0  0  0  0  0  0  0  0  0  0  0  0
    0.2058    1.0375   -0.7070 H   0  0  0  0  0  0  0  0  0  0  0  0
   -2.9200   -0.3436   -0.8304 H   0  0  0  0  0  0  0  0  0  0  0  0
   -2.5701    1.1269    0.1113 H   0  0  0  0  0  0  0  0  0  0  0  0
   -5.1287    1.0611    0.7677 H   0  0  0  0  0  0  0  0  0  0  0  0
   -5.7288   -0.6378    1.0768 H   0  0  0  0  0  0  0  0  0  0  0  0
  1  2  1  0
  2  3  1  0
  3  4  1  0
  4  5  2  0
  4  6  1  0
  7  6  1  1
  7  8  2  0
  7  9  1  0
  9 10  1  0
 10 11  1  0
 10 12  2  0
  1 13  1  0
  1 14  1  0
  1 15  1  0
  3 16  1  0
  3 17  1  0
  6 18  1  0
  6 19  1  0
  9 20  1  0
  9 21  1  0
 11 22  1  0
 11 23  1  0
M  END
$$$$
