
     RDKit          3D

 22 21  0  0  0  0  0  0  0  0999 V2000
    3.6976    0.3082   -0.4585 C   0  0  0  0  0  0  0  0  0  0  0  0
    2.3746    0.5269    0.0782 N   0  0  0  0  0  0  0  0  0  0  0  0
    1.6605   -0.7320    0.2152 C   0  0  0  0  0  0  0  0  0  0  0  0
    0.2667   -0.4792    0.7779 C   0  0  0  0  0  0  0  0  0  0  0  0
   -0.6816    0.5855   -0.2916 S   0  0  0  0  0  4  0  0  0  0  0  0
    0.0441    1.9074   -0.4466 O   0  0  0  0  0  0  0  0  0  0  0  0
   -2.3258    0.9167    0.3235 C   0  0  0  0  0  0  0  0  0  0  0  0
   -3.1285   -0.3192    0.4774 C   0  0  0  0  0  0  0  0  0  0  0  0
   -3.9756   -0.7283   -0.5743 N   0  0  0  0  0  0  0  0  0  0  0  0
   -3.0471   -0.9733    1.5268 O   0  0  0  0  0  0  0  0  0  0  0  0
    4.3727    1.1109   -0.0636 H   0  0  0  0  0  0  0  0  0  0  0  0
    3.7212    0.3693   -1.5614 H   0  0  0  0  0  0  0  0  0  0  0  0
    4.1535   -0.6559   -0.0852 H   0  0  0  0  0  0  0  0  0  0  0  0
    2.4759    1.0084    1.0033 H   0  0  0  0  0  0  0  0  0  0  0  0
    1.5966   -1.1926   -0.7723 H   0  0  0  0  0  0  0  0  0  0  0  0
    2.2563   -1.3626    0.9074 H   0  0  0  0  0  0  0  0  0  0  0  0
    0.3676   -0.0275    1.7855 H   0  0  0  0  0  0  0  0  0  0  0  0
   -0.2102   -1.4781    0.8904 H   0  0  0  0  0  0  0  0  0  0  0  0
   -2.8238    1.5616   -0.4456 H   0  0  0  0  0  0  0  0  0  0  0  0
   -2.2062    1.4394    1.2992 H   0  0  0  0  0  0  0  0  0  0  0  0
   -5.0104   -0.5956   -0.5710 H   0  0  0  0  0  0  0  0  0  0  0  0
   -3.5784   -1.1899   -1.4195 H   0  0  0  0  0  0  0  0  0  0  0  0
  1  2  1  0
  2  3  1  0
  3  4  1  0
  5  4  1  1
  5  6  2  0
  5  7  1  0
  7  8  1  0
  8  9  1  0
  8 10  2  0
  1 11  1  0
  1 12  1  0
  1 13  1  0
  2 14  1  0
  3 15  1  0
  3 16  1  0
  4 17  1  0
  4 18  1  0
  7 19  1  0
  7 20  1  0
  9 21  1  0
  9 22  1  0
M  END
$$$$

     RDKit          3D

 22 21  0  0  0  0  0  0  0  0999 V2000
    3.5961    0.5504    0.5292 C   0  0  0  0  0  0  0  0  0  0  0  0
    2.2980   -0.1175    0.3873 N   0  0  0  0  0  0  0  0  0  0  0  0
    1.3624    0.6998   -0.3141 C   0  0  0  0  0  0  0  0  0  0  0  0
    0.0715   -0.0233   -0.5312 C   0  0  0  0  0  0  0  0  0  0  0  0
   -0.7257   -0.5058    0.9748 S   0  0  0  0  0  4  0  0  0  0  0  0
    0.1462   -1.5527    1.6836 O   0  0  0  0  0  0  0  0  0  0  0  0
   -2.2905   -1.3557    0.6080 C   0  0  0  0  0  0  0  0  0  0  0  0
   -3.2081   -0.4699   -0.1457 C   0  0  0  0  0  0  0  0  0  0  0  0
   -2.8928    0.8639   -0.5239 N   0  0  0  0  0  0  0  0  0  0  0  0
   -4.3266   -0.9454   -0.4596 O   0  0  0  0  0  0  0  0  0  0  0  0
    4.3582   -0.2494    0.4778 H   0  0  0  0  0  0  0  0  0  0  0  0
    3.7358    1.2253   -0.3277 H   0  0  0  0  0  0  0  0  0  0  0  0
    3.6316    1.0638    1.5042 H   0  0  0  0  0  0  0  0  0  0  0  0
    1.9883   -0.3439    1.3660 H   0  0  0  0  0  0  0  0  0  0  0  0
    1.8441    0.9592   -1.3005 H   0  0  0  0  0  0  0  0  0  0  0  0
    1.1558    1.6652    0.2300 H   0  0  0  0  0  0  0  0  0  0  0  0
    0.2161   -0.9454   -1.1626 H   0  0  0  0  0  0  0  0  0  0  0  0
   -0.5901    0.6215   -1.1653 H   0  0  0  0  0  0  0  0  0  0  0  0
   -2.7491   -1.6227    1.5617 H   0  0  0  0  0  0  0  0  0  0  0  0
   -2.0666   -2.2331   -0.0222 H   0  0  0  0  0  0  0  0  0  0  0  0
   -2.6474    1.5911    0.1763 H   0  0  0  0  0  0  0  0  0  0  0  0
   -2.9069    1.1248   -1.5348 H   0  0  0  0  0  0  0  0  0  0  0  0
  1  2  1  0
  2  3  1  0
  3  4  1  0
  5  4  1  6
  5  6  2  0
  5  7  1  0
  7  8  1  0
  8  9  1  0
  8 10  2  0
  1 11  1  0
  1 12  1  0
  1 13  1  0
  2 14  1  0
  3 15  1  0
  3 16  1  0
  4 17  1  0
  4 18  1  0
  7 19  1  0
  7 20  1  0
  9 21  1  0
  9 22  1  0
M  END
$$$$

     RDKit          3D

 22 21  0  0  0  0  0  0  0  0999 V2000
    2.9696    1.3768    0.0380 C   0  0  0  0  0  0  0  0  0  0  0  0
    2.9400   -0.0355    0.0342 N   0  0  0  0  0  0  0  0  0  0  0  0
    1.8305   -0.6922   -0.5372 C   0  0  0  0  0  0  0  0  0  0  0  0
    0.5971   -0.4561    0.3154 C   0  0  0  0  0  0  0  0  0  0  0  0
   -0.7782   -1.3002   -0.4230 S   0  0  0  0  0  4  0  0  0  0  0  0
   -0.8657   -1.1577   -1.9122 O   0  0  0  0  0  0  0  0  0  0  0  0
   -2.3052   -1.1201    0.4549 C   0  0  0  0  0  0  0  0  0  0  0  0
   -2.7646    0.2805    0.5906 C   0  0  0  0  0  0  0  0  0  0  0  0
   -3.5931    0.8803   -0.3890 N   0  0  0  0  0  0  0  0  0  0  0  0
   -2.4076    0.9430    1.5948 O   0  0  0  0  0  0  0  0  0  0  0  0
    3.8519    1.6846    0.6632 H   0  0  0  0  0  0  0  0  0  0  0  0
    2.0851    1.7944    0.5705 H   0  0  0  0  0  0  0  0  0  0  0  0
    3.1171    1.8674   -0.9512 H   0  0  0  0  0  0  0  0  0  0  0  0
    3.6342   -0.5604    0.5471 H   0  0  0  0  0  0  0  0  0  0  0  0
    1.5982   -0.3744   -1.5869 H   0  0  0  0  0  0  0  0  0  0  0  0
    2.0527   -1.7906   -0.5533 H   0  0  0  0  0  0  0  0  0  0  0  0
    0.4364    0.6318    0.4284 H   0  0  0  0  0  0  0  0  0  0  0  0
    0.7493   -0.8468    1.3351 H   0  0  0  0  0  0  0  0  0  0  0  0
   -3.0943   -1.6842   -0.0935 H   0  0  0  0  0  0  0  0  0  0  0  0
   -2.2495   -1.6262    1.4554 H   0  0  0  0  0  0  0  0  0  0  0  0
   -4.2585    1.6556   -0.1944 H   0  0  0  0  0  0  0  0  0  0  0  0
   -3.5455    0.5300   -1.3868 H   0  0  0  0  0  0  0  0  0  0  0  0
  1  2  1  0
  2  3  1  0
  3  4  1  0
  5  4  1  1
  5  6  2  0
  5  7  1  0
  7  8  1  0
  8  9  1  0
  8 10  2  0
  1 11  1  0
  1 12  1  0
  1 13  1  0
  2 14  1  0
  3 15  1  0
  3 16  1  0
  4 17  1  0
  4 18  1  0
  7 19  1  0
  7 20  1  0
  9 21  1  0
  9 22  1  0
M  END
$$$$

     RDKit          3D

 22 21  0  0  0  0  0  0  0  0999 V2000
   -3.3098    0.9373    0.2792 C   0  0  0  0  0  0  0  0  0  0  0  0
   -2.4070   -0.0706    0.8226 N   0  0  0  0  0  0  0  0  0  0  0  0
   -1.3380   -0.2582   -0.1302 C   0  0  0  0  0  0  0  0  0  0  0  0
   -0.4016   -1.2973    0.4232 C   0  0  0  0  0  0  0  0  0  0  0  0
    0.9453   -1.5916   -0.6854 S   0  0  0  0  0  4  0  0  0  0  0  0
    1.8244   -2.7273   -0.2172 O   0  0  0  0  0  0  0  0  0  0  0  0
    1.9416   -0.1749   -1.0281 C   0  0  0  0  0  0  0  0  0  0  0  0
    2.5707    0.3944    0.2104 C   0  0  0  0  0  0  0  0  0  0  0  0
    3.4068    1.5362    0.1335 N   0  0  0  0  0  0  0  0  0  0  0  0
    2.3624   -0.1361    1.3301 O   0  0  0  0  0  0  0  0  0  0  0  0
   -2.6760    1.7686   -0.0914 H   0  0  0  0  0  0  0  0  0  0  0  0
   -4.0496    1.2719    1.0326 H   0  0  0  0  0  0  0  0  0  0  0  0
   -3.8599    0.5455   -0.6126 H   0  0  0  0  0  0  0  0  0  0  0  0
   -2.9400   -0.9561    0.9287 H   0  0  0  0  0  0  0  0  0  0  0  0
   -1.7902   -0.6866   -1.0527 H   0  0  0  0  0  0  0  0  0  0  0  0
   -0.8009    0.6913   -0.3118 H   0  0  0  0  0  0  0  0  0  0  0  0
   -0.0901   -1.0212    1.4512 H   0  0  0  0  0  0  0  0  0  0  0  0
   -0.9816   -2.2382    0.5216 H   0  0  0  0  0  0  0  0  0  0  0  0
    2.7851   -0.4875   -1.6788 H   0  0  0  0  0  0  0  0  0  0  0  0
    1.4051    0.6272   -1.5820 H   0  0  0  0  0  0  0  0  0  0  0  0
    4.0433    1.6258   -0.6749 H   0  0  0  0  0  0  0  0  0  0  0  0
    3.3598    2.2472    0.8832 H   0  0  0  0  0  0  0  0  0  0  0  0
  1  2  1  0
  2  3  1  0
  3  4  1  0
  5  4  1  1
  5  6  2  0
  5  7  1  0
  7  8  1  0
  8  9  1  0
  8 10  2  0
  1 11  1  0
  1 12  1  0
  1 13  1  0
  2 14  1  0
  3 15  1  0
  3 16  1  0
  4 17  1  0
  4 18  1  0
  7 19  1  0
  7 20  1  0
  9 21  1  0
  9 22  1  0
M  END
$$$$

     RDKit          3D

 22 21  0  0  0  0  0  0  0  0999 V2000
   -3.1468    0.0732   -1.1030 C   0  0  0  0  0  0  0  0  0  0  0  0
   -2.8483   -0.3586    0.2178 N   0  0  0  0  0  0  0  0  0  0  0  0
   -1.4490   -0.4058    0.5177 C   0  0  0  0  0  0  0  0  0  0  0  0
   -0.8393    0.9487    0.5924 C   0  0  0  0  0  0  0  0  0  0  0  0
    0.9233    0.7930    0.9749 S   0  0  0  0  0  4  0  0  0  0  0  0
    1.5542    2.1582    1.0625 O   0  0  0  0  0  0  0  0  0  0  0  0
    1.6724   -0.1652   -0.3509 C   0  0  0  0  0  0  0  0  0  0  0  0
    3.1103   -0.3167   -0.0840 C   0  0  0  0  0  0  0  0  0  0  0  0
    3.9031   -1.0363   -1.0117 N   0  0  0  0  0  0  0  0  0  0  0  0
    3.6491    0.1698    0.9350 O   0  0  0  0  0  0  0  0  0  0  0  0
   -2.9433   -0.7736   -1.8103 H   0  0  0  0  0  0  0  0  0  0  0  0
   -4.2224    0.3443   -1.1333 H   0  0  0  0  0  0  0  0  0  0  0  0
   -2.5581    0.9351   -1.4451 H   0  0  0  0  0  0  0  0  0  0  0  0
   -3.3954    0.0777    0.9525 H   0  0  0  0  0  0  0  0  0  0  0  0
   -0.9255   -1.0322   -0.2530 H   0  0  0  0  0  0  0  0  0  0  0  0
   -1.2902   -0.9203    1.4959 H   0  0  0  0  0  0  0  0  0  0  0  0
   -1.2794    1.4823    1.4836 H   0  0  0  0  0  0  0  0  0  0  0  0
   -0.9968    1.4910   -0.3348 H   0  0  0  0  0  0  0  0  0  0  0  0
    1.2301   -1.1842   -0.3298 H   0  0  0  0  0  0  0  0  0  0  0  0
    1.5124    0.2922   -1.3467 H   0  0  0  0  0  0  0  0  0  0  0  0
    4.4879   -0.4946   -1.6775 H   0  0  0  0  0  0  0  0  0  0  0  0
    3.8519   -2.0781   -0.9681 H   0  0  0  0  0  0  0  0  0  0  0  0
  1  2  1  0
  2  3  1  0
  3  4  1  0
  5  4  1  6
  5  6  2  0
  5  7  1  0
  7  8  1  0
  8  9  1  0
  8 10  2  0
  1 11  1  0
  1 12  1  0
  1 13  1  0
  2 14  1  0
  3 15  1  0
  3 16  1  0
  4 17  1  0
  4 18  1  0
  7 19  1  0
  7 20  1  0
  9 21  1  0
  9 22  1  0
M  END
$$$$

     RDKit          3D

 22 21  0  0  0  0  0  0  0  0999 V2000
   -3.2645    0.9709   -0.4336 C   0  0  0  0  0  0  0  0  0  0  0  0
   -2.7201    0.4226    0.7533 N   0  0  0  0  0  0  0  0  0  0  0  0
   -1.7105   -0.5887    0.5964 C   0  0  0  0  0  0  0  0  0  0  0  0
   -0.4681   -0.0044    0.0167 C   0  0  0  0  0  0  0  0  0  0  0  0
    0.7398   -1.3625   -0.1345 S   0  0  0  0  0  4  0  0  0  0  0  0
    1.0634   -1.9323    1.2381 O   0  0  0  0  0  0  0  0  0  0  0  0
    2.2585   -0.6575   -0.8444 C   0  0  0  0  0  0  0  0  0  0  0  0
    2.7536    0.3908    0.0662 C   0  0  0  0  0  0  0  0  0  0  0  0
    3.7577    0.1683    1.0344 N   0  0  0  0  0  0  0  0  0  0  0  0
    2.2431    1.5479   -0.0347 O   0  0  0  0  0  0  0  0  0  0  0  0
   -3.2678    2.0933   -0.3137 H   0  0  0  0  0  0  0  0  0  0  0  0
   -4.3452    0.7022   -0.5446 H   0  0  0  0  0  0  0  0  0  0  0  0
   -2.7679    0.7212   -1.3726 H   0  0  0  0  0  0  0  0  0  0  0  0
   -3.4079    0.1803    1.4893 H   0  0  0  0  0  0  0  0  0  0  0  0
   -1.4593   -0.9268    1.6353 H   0  0  0  0  0  0  0  0  0  0  0  0
   -2.0299   -1.4678    0.0339 H   0  0  0  0  0  0  0  0  0  0  0  0
   -0.6922    0.4169   -0.9762 H   0  0  0  0  0  0  0  0  0  0  0  0
   -0.0365    0.7674    0.6833 H   0  0  0  0  0  0  0  0  0  0  0  0
    2.0517   -0.2186   -1.8242 H   0  0  0  0  0  0  0  0  0  0  0  0
    3.0212   -1.4558   -0.9609 H   0  0  0  0  0  0  0  0  0  0  0  0
    4.4688    0.9299    1.1823 H   0  0  0  0  0  0  0  0  0  0  0  0
    3.8119   -0.6974    1.5844 H   0  0  0  0  0  0  0  0  0  0  0  0
  1  2  1  0
  2  3  1  0
  3  4  1  0
  5  4  1  1
  5  6  2  0
  5  7  1  0
  7  8  1  0
  8  9  1  0
  8 10  2  0
  1 11  1  0
  1 12  1  0
  1 13  1  0
  2 14  1  0
  3 15  1  0
  3 16  1  0
  4 17  1  0
  4 18  1  0
  7 19  1  0
  7 20  1  0
  9 21  1  0
  9 22  1  0
M  END
$$$$

     RDKit          3D

 22 21  0  0  0  0  0  0  0  0999 V2000
    2.9159    1.1993   -0.4991 C   0  0  0  0  0  0  0  0  0  0  0  0
    2.9014   -0.0090    0.2590 N   0  0  0  0  0  0  0  0  0  0  0  0
    1.7759   -0.8250   -0.0286 C   0  0  0  0  0  0  0  0  0  0  0  0
    0.4433   -0.2715    0.4502 C   0  0  0  0  0  0  0  0  0  0  0  0
   -0.7973   -1.4481    0.0218 S   0  0  0  0  0  4  0  0  0  0  0  0
   -0.5668   -2.2427   -1.2147 O   0  0  0  0  0  0  0  0  0  0  0  0
   -2.4429   -1.0966    0.4633 C   0  0  0  0  0  0  0  0  0  0  0  0
   -3.0355    0.1300   -0.1156 C   0  0  0  0  0  0  0  0  0  0  0  0
   -2.7450    1.4234    0.3839 N   0  0  0  0  0  0  0  0  0  0  0  0
   -3.8421    0.0423   -1.1093 O   0  0  0  0  0  0  0  0  0  0  0  0
    1.8870    1.5931   -0.6068 H   0  0  0  0  0  0  0  0  0  0  0  0
    3.3303    0.9665   -1.5207 H   0  0  0  0  0  0  0  0  0  0  0  0
    3.6090    1.9748   -0.0550 H   0  0  0  0  0  0  0  0  0  0  0  0
    3.2227    0.0159    1.2164 H   0  0  0  0  0  0  0  0  0  0  0  0
    1.6450   -1.0121   -1.1391 H   0  0  0  0  0  0  0  0  0  0  0  0
    1.9044   -1.8662    0.3984 H   0  0  0  0  0  0  0  0  0  0  0  0
    0.2214    0.6912   -0.0328 H   0  0  0  0  0  0  0  0  0  0  0  0
    0.4738   -0.1299    1.5348 H   0  0  0  0  0  0  0  0  0  0  0  0
   -3.0853   -2.0024    0.2123 H   0  0  0  0  0  0  0  0  0  0  0  0
   -2.5005   -0.9857    1.5913 H   0  0  0  0  0  0  0  0  0  0  0  0
   -1.8099    1.6904    0.7276 H   0  0  0  0  0  0  0  0  0  0  0  0
   -3.5048    2.1623    0.4181 H   0  0  0  0  0  0  0  0  0  0  0  0
  1  2  1  0
  2  3  1  0
  3  4  1  0
  5  4  1  6
  5  6  2  0
  5  7  1  0
  7  8  1  0
  8  9  1  0
  8 10  2  0
  1 11  1  0
  1 12  1  0
  1 13  1  0
  2 14  1  0
  3 15  1  0
  3 16  1  0
  4 17  1  0
  4 18  1  0
  7 19  1  0
  7 20  1  0
  9 21  1  0
  9 22  1  0
M  END
$$$$

     RDKit          3D

 22 21  0  0  0  0  0  0  0  0999 V2000
   -3.4084   -0.4551    0.4823 C   0  0  0  0  0  0  0  0  0  0  0  0
   -2.8017    0.7755    0.1544 N   0  0  0  0  0  0  0  0  0  0  0  0
   -1.4283    0.7854   -0.1789 C   0  0  0  0  0  0  0  0  0  0  0  0
   -0.5398    0.4568    1.0007 C   0  0  0  0  0  0  0  0  0  0  0  0
    1.1808    0.4667    0.5611 S   0  0  0  0  0  4  0  0  0  0  0  0
    1.7271    1.8307    0.2348 O   0  0  0  0  0  0  0  0  0  0  0  0
    1.6194   -0.7025   -0.7098 C   0  0  0  0  0  0  0  0  0  0  0  0
    3.0797   -0.5585   -0.9561 C   0  0  0  0  0  0  0  0  0  0  0  0
    4.0527   -1.2548   -0.1628 N   0  0  0  0  0  0  0  0  0  0  0  0
    3.4560    0.1885   -1.8758 O   0  0  0  0  0  0  0  0  0  0  0  0
   -2.8387   -1.3663    0.2870 H   0  0  0  0  0  0  0  0  0  0  0  0
   -4.3591   -0.5544   -0.1222 H   0  0  0  0  0  0  0  0  0  0  0  0
   -3.7503   -0.3869    1.5559 H   0  0  0  0  0  0  0  0  0  0  0  0
   -3.3769    1.5388   -0.1784 H   0  0  0  0  0  0  0  0  0  0  0  0
   -1.1785    1.8563   -0.4498 H   0  0  0  0  0  0  0  0  0  0  0  0
   -1.1552    0.1955   -1.0751 H   0  0  0  0  0  0  0  0  0  0  0  0
   -0.6950    1.2267    1.7923 H   0  0  0  0  0  0  0  0  0  0  0  0
   -0.7910   -0.5361    1.4041 H   0  0  0  0  0  0  0  0  0  0  0  0
    1.0412   -0.5279   -1.6373 H   0  0  0  0  0  0  0  0  0  0  0  0
    1.4071   -1.7296   -0.3253 H   0  0  0  0  0  0  0  0  0  0  0  0
    4.3855   -2.1683   -0.5371 H   0  0  0  0  0  0  0  0  0  0  0  0
    4.3731   -0.8182    0.7358 H   0  0  0  0  0  0  0  0  0  0  0  0
  1  2  1  0
  2  3  1  0
  3  4  1  0
  5  4  1  6
  5  6  2  0
  5  7  1  0
  7  8  1  0
  8  9  1  0
  8 10  2  0
  1 11  1  0
  1 12  1  0
  1 13  1  0
  2 14  1  0
  3 15  1  0
  3 16  1  0
  4 17  1  0
  4 18  1  0
  7 19  1  0
  7 20  1  0
  9 21  1  0
  9 22  1  0
M  END
$$$$
