
     RDKit          3D

 22 21  0  0  0  0  0  0  0  0999 V2000
    2.7357   -1.7399   -0.1271 C   0  0  0  0  0  0  0  0  0  0  0  0
    1.5496   -1.0402    0.0043 O   0  0  0  0  0  0  0  0  0  0  0  0
    1.4580   -0.0524   -0.9409 N   0  0  0  0  0  0  0  0  0  0  0  0
    0.2819    0.7379   -0.5394 C   0  0  2  0  0  0  0  0  0  0  0  0
    0.6099    1.2559    0.8599 C   0  0  0  0  0  0  0  0  0  0  0  0
   -0.4857    2.0470    1.3458 N   0  0  0  0  0  0  0  0  0  0  0  0
   -0.8600   -0.2059   -0.4991 C   0  0  0  0  0  0  0  0  0  0  0  0
   -0.7751   -1.4294   -0.7666 O   0  0  0  0  0  0  0  0  0  0  0  0
   -2.1057    0.2869   -0.1439 O   0  0  0  0  0  0  0  0  0  0  0  0
   -3.2536   -0.5448   -0.0795 C   0  0  0  0  0  0  0  0  0  0  0  0
    2.7928   -2.1231   -1.1738 H   0  0  0  0  0  0  0  0  0  0  0  0
    3.5709   -1.0396    0.0687 H   0  0  0  0  0  0  0  0  0  0  0  0
    2.7327   -2.5622    0.5914 H   0  0  0  0  0  0  0  0  0  0  0  0
    1.1935   -0.4822   -1.8624 H   0  0  0  0  0  0  0  0  0  0  0  0
    0.1419    1.5811   -1.2177 H   0  0  0  0  0  0  0  0  0  0  0  0
    1.5235    1.8810    0.8303 H   0  0  0  0  0  0  0  0  0  0  0  0
    0.8274    0.4208    1.5520 H   0  0  0  0  0  0  0  0  0  0  0  0
   -0.1329    2.9448    1.7531 H   0  0  0  0  0  0  0  0  0  0  0  0
   -1.1529    2.3033    0.5620 H   0  0  0  0  0  0  0  0  0  0  0  0
   -3.9747   -0.1785   -0.8280 H   0  0  0  0  0  0  0  0  0  0  0  0
   -3.6595   -0.4614    0.9351 H   0  0  0  0  0  0  0  0  0  0  0  0
   -3.0176   -1.5988   -0.3242 H   0  0  0  0  0  0  0  0  0  0  0  0
  1  2  1  0
  2  3  1  0
  3  4  1  0
  4  5  1  0
  5  6  1  0
  4  7  1  0
  7  8  2  0
  7  9  1  0
  9 10  1  0
  1 11  1  0
  1 12  1  0
  1 13  1  0
  3 14  1  0
  4 15  1  6
  5 16  1  0
  5 17  1  0
  6 18  1  0
  6 19  1  0
 10 20  1  0
 10 21  1  0
 10 22  1  0
M  END
$$$$

     RDKit          3D

 22 21  0  0  0  0  0  0  0  0999 V2000
   -2.9756   -1.3655    0.1615 C   0  0  0  0  0  0  0  0  0  0  0  0
   -2.2636   -0.2625   -0.3367 O   0  0  0  0  0  0  0  0  0  0  0  0
   -0.9926   -0.6071   -0.5903 N   0  0  0  0  0  0  0  0  0  0  0  0
   -0.0301    0.0492    0.2268 C   0  0  2  0  0  0  0  0  0  0  0  0
   -0.0560    1.5584    0.0874 C   0  0  0  0  0  0  0  0  0  0  0  0
   -1.3301    2.1247    0.4488 N   0  0  0  0  0  0  0  0  0  0  0  0
    1.3251   -0.3940   -0.1783 C   0  0  0  0  0  0  0  0  0  0  0  0
    1.4237   -1.2235   -1.1148 O   0  0  0  0  0  0  0  0  0  0  0  0
    2.4782    0.0816    0.4471 O   0  0  0  0  0  0  0  0  0  0  0  0
    3.7075   -0.4233   -0.0374 C   0  0  0  0  0  0  0  0  0  0  0  0
   -3.4094   -1.0451    1.1295 H   0  0  0  0  0  0  0  0  0  0  0  0
   -3.8255   -1.6299   -0.5123 H   0  0  0  0  0  0  0  0  0  0  0  0
   -2.3256   -2.2408    0.3084 H   0  0  0  0  0  0  0  0  0  0  0  0
   -0.7649   -0.6357   -1.6028 H   0  0  0  0  0  0  0  0  0  0  0  0
   -0.2401   -0.2403    1.2884 H   0  0  0  0  0  0  0  0  0  0  0  0
    0.2078    1.8896   -0.9236 H   0  0  0  0  0  0  0  0  0  0  0  0
    0.6995    1.9929    0.7750 H   0  0  0  0  0  0  0  0  0  0  0  0
   -1.9939    2.2178   -0.3406 H   0  0  0  0  0  0  0  0  0  0  0  0
   -1.7500    1.6910    1.2958 H   0  0  0  0  0  0  0  0  0  0  0  0
    3.6094   -0.7086   -1.1049 H   0  0  0  0  0  0  0  0  0  0  0  0
    4.0806   -1.2747    0.5675 H   0  0  0  0  0  0  0  0  0  0  0  0
    4.4255    0.4456    0.0056 H   0  0  0  0  0  0  0  0  0  0  0  0
  1  2  1  0
  2  3  1  0
  3  4  1  0
  4  5  1  0
  5  6  1  0
  4  7  1  0
  7  8  2  0
  7  9  1  0
  9 10  1  0
  1 11  1  0
  1 12  1  0
  1 13  1  0
  3 14  1  0
  4 15  1  1
  5 16  1  0
  5 17  1  0
  6 18  1  0
  6 19  1  0
 10 20  1  0
 10 21  1  0
 10 22  1  0
M  END
$$$$

     RDKit          3D

 22 21  0  0  0  0  0  0  0  0999 V2000
   -2.8030   -1.8498   -0.4471 C   0  0  0  0  0  0  0  0  0  0  0  0
   -1.9221   -1.1827    0.3978 O   0  0  0  0  0  0  0  0  0  0  0  0
   -1.6626    0.0382   -0.0630 N   0  0  0  0  0  0  0  0  0  0  0  0
   -0.4239    0.5838    0.3856 C   0  0  2  0  0  0  0  0  0  0  0  0
   -0.1570    1.9651   -0.1513 C   0  0  0  0  0  0  0  0  0  0  0  0
    1.1144    2.4081    0.3679 N   0  0  0  0  0  0  0  0  0  0  0  0
    0.6791   -0.3560    0.1182 C   0  0  0  0  0  0  0  0  0  0  0  0
    0.4123   -1.4503   -0.4353 O   0  0  0  0  0  0  0  0  0  0  0  0
    1.9995   -0.1028    0.4428 O   0  0  0  0  0  0  0  0  0  0  0  0
    3.0151   -1.0456    0.1603 C   0  0  0  0  0  0  0  0  0  0  0  0
   -2.2314   -2.3875   -1.2168 H   0  0  0  0  0  0  0  0  0  0  0  0
   -3.4439   -2.5463    0.1137 H   0  0  0  0  0  0  0  0  0  0  0  0
   -3.4497   -1.0522   -0.9127 H   0  0  0  0  0  0  0  0  0  0  0  0
   -1.8639    0.1672   -1.0708 H   0  0  0  0  0  0  0  0  0  0  0  0
   -0.4883    0.6720    1.5093 H   0  0  0  0  0  0  0  0  0  0  0  0
   -0.2382    2.0265   -1.2345 H   0  0  0  0  0  0  0  0  0  0  0  0
   -0.9318    2.6368    0.3009 H   0  0  0  0  0  0  0  0  0  0  0  0
    1.2654    3.4289    0.2758 H   0  0  0  0  0  0  0  0  0  0  0  0
    1.3746    1.9951    1.2624 H   0  0  0  0  0  0  0  0  0  0  0  0
    3.2365   -1.5662    1.1297 H   0  0  0  0  0  0  0  0  0  0  0  0
    3.9292   -0.5703   -0.2558 H   0  0  0  0  0  0  0  0  0  0  0  0
    2.5897   -1.8122   -0.5170 H   0  0  0  0  0  0  0  0  0  0  0  0
  1  2  1  0
  2  3  1  0
  3  4  1  0
  4  5  1  0
  5  6  1  0
  4  7  1  0
  7  8  2  0
  7  9  1  0
  9 10  1  0
  1 11  1  0
  1 12  1  0
  1 13  1  0
  3 14  1  0
  4 15  1  1
  5 16  1  0
  5 17  1  0
  6 18  1  0
  6 19  1  0
 10 20  1  0
 10 21  1  0
 10 22  1  0
M  END
$$$$

     RDKit          3D

 22 21  0  0  0  0  0  0  0  0999 V2000
    3.1135   -1.2397   -0.6876 C   0  0  0  0  0  0  0  0  0  0  0  0
    1.9462   -0.5706   -1.0717 O   0  0  0  0  0  0  0  0  0  0  0  0
    1.5646    0.2044   -0.0874 N   0  0  0  0  0  0  0  0  0  0  0  0
    0.2417    0.6729   -0.0821 C   0  0  2  0  0  0  0  0  0  0  0  0
    0.0108    1.5496    1.1398 C   0  0  0  0  0  0  0  0  0  0  0  0
   -1.3339    2.0611    1.1992 N   0  0  0  0  0  0  0  0  0  0  0  0
   -0.6840   -0.4703   -0.0823 C   0  0  0  0  0  0  0  0  0  0  0  0
   -0.2339   -1.6283   -0.0868 O   0  0  0  0  0  0  0  0  0  0  0  0
   -2.0379   -0.2574   -0.0777 O   0  0  0  0  0  0  0  0  0  0  0  0
   -3.0035   -1.2872   -0.0776 C   0  0  0  0  0  0  0  0  0  0  0  0
    3.7264   -1.5131   -1.5694 H   0  0  0  0  0  0  0  0  0  0  0  0
    3.6813   -0.6172    0.0389 H   0  0  0  0  0  0  0  0  0  0  0  0
    2.7822   -2.1576   -0.1511 H   0  0  0  0  0  0  0  0  0  0  0  0
    2.0480    0.1131    0.8095 H   0  0  0  0  0  0  0  0  0  0  0  0
    0.0738    1.3351   -0.9806 H   0  0  0  0  0  0  0  0  0  0  0  0
    0.7332    2.4017    1.0494 H   0  0  0  0  0  0  0  0  0  0  0  0
    0.3120    0.9983    2.0562 H   0  0  0  0  0  0  0  0  0  0  0  0
   -1.8216    2.0410    0.2880 H   0  0  0  0  0  0  0  0  0  0  0  0
   -1.3665    3.0287    1.6368 H   0  0  0  0  0  0  0  0  0  0  0  0
   -3.4939   -1.3681   -1.0650 H   0  0  0  0  0  0  0  0  0  0  0  0
   -3.7936   -1.0725    0.6686 H   0  0  0  0  0  0  0  0  0  0  0  0
   -2.4650   -2.2239    0.2076 H   0  0  0  0  0  0  0  0  0  0  0  0
  1  2  1  0
  2  3  1  0
  3  4  1  0
  4  5  1  0
  5  6  1  0
  4  7  1  0
  7  8  2  0
  7  9  1  0
  9 10  1  0
  1 11  1  0
  1 12  1  0
  1 13  1  0
  3 14  1  0
  4 15  1  6
  5 16  1  0
  5 17  1  0
  6 18  1  0
  6 19  1  0
 10 20  1  0
 10 21  1  0
 10 22  1  0
M  END
$$$$

     RDKit          3D

 22 21  0  0  0  0  0  0  0  0999 V2000
   -3.2798    0.9689    0.0419 C   0  0  0  0  0  0  0  0  0  0  0  0
   -2.5263    0.0246    0.7444 O   0  0  0  0  0  0  0  0  0  0  0  0
   -1.2867    0.5395    0.9087 N   0  0  0  0  0  0  0  0  0  0  0  0
   -0.3722    0.0757   -0.1132 C   0  0  2  0  0  0  0  0  0  0  0  0
   -0.2928   -1.4559   -0.0253 C   0  0  0  0  0  0  0  0  0  0  0  0
    0.6227   -1.8924   -1.0517 N   0  0  0  0  0  0  0  0  0  0  0  0
    0.9786    0.5753    0.2039 C   0  0  0  0  0  0  0  0  0  0  0  0
    1.1424    1.2757    1.2289 O   0  0  0  0  0  0  0  0  0  0  0  0
    2.0947    0.3146   -0.5724 O   0  0  0  0  0  0  0  0  0  0  0  0
    3.3556    0.8344   -0.1940 C   0  0  0  0  0  0  0  0  0  0  0  0
   -3.5171    0.5889   -0.9706 H   0  0  0  0  0  0  0  0  0  0  0  0
   -2.7148    1.9305   -0.0865 H   0  0  0  0  0  0  0  0  0  0  0  0
   -4.2350    1.1960    0.5730 H   0  0  0  0  0  0  0  0  0  0  0  0
   -0.9061    0.1846    1.8310 H   0  0  0  0  0  0  0  0  0  0  0  0
   -0.7131    0.3797   -1.1218 H   0  0  0  0  0  0  0  0  0  0  0  0
    0.0957   -1.7415    0.9733 H   0  0  0  0  0  0  0  0  0  0  0  0
   -1.2986   -1.8857   -0.1364 H   0  0  0  0  0  0  0  0  0  0  0  0
    1.5742   -1.9711   -0.6085 H   0  0  0  0  0  0  0  0  0  0  0  0
    0.2816   -2.8392   -1.3745 H   0  0  0  0  0  0  0  0  0  0  0  0
    3.7875    0.1897    0.5990 H   0  0  0  0  0  0  0  0  0  0  0  0
    3.1698    1.8552    0.2152 H   0  0  0  0  0  0  0  0  0  0  0  0
    4.0399    0.8526   -1.0644 H   0  0  0  0  0  0  0  0  0  0  0  0
  1  2  1  0
  2  3  1  0
  3  4  1  0
  4  5  1  0
  5  6  1  0
  4  7  1  0
  7  8  2  0
  7  9  1  0
  9 10  1  0
  1 11  1  0
  1 12  1  0
  1 13  1  0
  3 14  1  0
  4 15  1  6
  5 16  1  0
  5 17  1  0
  6 18  1  0
  6 19  1  0
 10 20  1  0
 10 21  1  0
 10 22  1  0
M  END
$$$$

     RDKit          3D

 22 21  0  0  0  0  0  0  0  0999 V2000
    2.1735   -2.2256    0.3882 C   0  0  0  0  0  0  0  0  0  0  0  0
    2.0930   -0.7998    0.4056 O   0  0  0  0  0  0  0  0  0  0  0  0
    0.8376   -0.4532    0.6086 N   0  0  0  0  0  0  0  0  0  0  0  0
    0.2316    0.3823   -0.3013 C   0  0  2  0  0  0  0  0  0  0  0  0
    0.5718    1.8804    0.0863 C   0  0  0  0  0  0  0  0  0  0  0  0
    1.9050    2.2746   -0.0645 N   0  0  0  0  0  0  0  0  0  0  0  0
   -1.2833    0.4009   -0.3186 C   0  0  0  0  0  0  0  0  0  0  0  0
   -1.9932    1.3698   -0.1480 O   0  0  0  0  0  0  0  0  0  0  0  0
   -1.9269   -0.8775   -0.5787 O   0  0  0  0  0  0  0  0  0  0  0  0
   -3.3644   -0.7866   -0.6033 C   0  0  0  0  0  0  0  0  0  0  0  0
    2.5322   -2.5867   -0.5789 H   0  0  0  0  0  0  0  0  0  0  0  0
    1.1539   -2.6878    0.5248 H   0  0  0  0  0  0  0  0  0  0  0  0
    2.8342   -2.5676    1.1944 H   0  0  0  0  0  0  0  0  0  0  0  0
    0.2545   -1.3108    0.8402 H   0  0  0  0  0  0  0  0  0  0  0  0
    0.5073    0.1895   -1.3598 H   0  0  0  0  0  0  0  0  0  0  0  0
   -0.1580    2.5623   -0.2729 H   0  0  0  0  0  0  0  0  0  0  0  0
    0.3508    1.8208    1.2463 H   0  0  0  0  0  0  0  0  0  0  0  0
    2.5084    2.3548    0.7739 H   0  0  0  0  0  0  0  0  0  0  0  0
    1.9757    3.2731   -0.5205 H   0  0  0  0  0  0  0  0  0  0  0  0
   -3.5912   -0.0247   -1.3966 H   0  0  0  0  0  0  0  0  0  0  0  0
   -3.7823   -0.3984    0.3062 H   0  0  0  0  0  0  0  0  0  0  0  0
   -3.8301   -1.7897   -0.8331 H   0  0  0  0  0  0  0  0  0  0  0  0
  1  2  1  0
  2  3  1  0
  3  4  1  0
  4  5  1  0
  5  6  1  0
  4  7  1  0
  7  8  2  0
  7  9  1  0
  9 10  1  0
  1 11  1  0
  1 12  1  0
  1 13  1  0
  3 14  1  0
  4 15  1  6
  5 16  1  0
  5 17  1  0
  6 18  1  0
  6 19  1  0
 10 20  1  0
 10 21  1  0
 10 22  1  0
M  END
$$$$

     RDKit          3D

 22 21  0  0  0  0  0  0  0  0999 V2000
    2.8908   -1.3304    0.4684 C   0  0  0  0  0  0  0  0  0  0  0  0
    2.2275   -0.2005    0.9334 O   0  0  0  0  0  0  0  0  0  0  0  0
    0.9267   -0.4416    1.1920 N   0  0  0  0  0  0  0  0  0  0  0  0
    0.0681   -0.1075    0.0957 C   0  0  2  0  0  0  0  0  0  0  0  0
    0.1901    1.3788   -0.2501 C   0  0  0  0  0  0  0  0  0  0  0  0
    1.5590    1.6639   -0.6145 N   0  0  0  0  0  0  0  0  0  0  0  0
   -1.3289   -0.4180    0.4843 C   0  0  0  0  0  0  0  0  0  0  0  0
   -1.6577   -0.8930    1.5979 O   0  0  0  0  0  0  0  0  0  0  0  0
   -2.3306   -0.1682   -0.4388 O   0  0  0  0  0  0  0  0  0  0  0  0
   -3.6731   -0.4553   -0.0942 C   0  0  0  0  0  0  0  0  0  0  0  0
    3.0355   -2.0963    1.2427 H   0  0  0  0  0  0  0  0  0  0  0  0
    3.8957   -1.0016    0.1273 H   0  0  0  0  0  0  0  0  0  0  0  0
    2.3795   -1.7863   -0.4075 H   0  0  0  0  0  0  0  0  0  0  0  0
    0.6618    0.1871    1.9945 H   0  0  0  0  0  0  0  0  0  0  0  0
    0.3020   -0.6542   -0.8332 H   0  0  0  0  0  0  0  0  0  0  0  0
   -0.0946    1.9200    0.6845 H   0  0  0  0  0  0  0  0  0  0  0  0
   -0.4740    1.6493   -1.0756 H   0  0  0  0  0  0  0  0  0  0  0  0
    1.6893    1.7763   -1.6440 H   0  0  0  0  0  0  0  0  0  0  0  0
    1.8407    2.5350   -0.1483 H   0  0  0  0  0  0  0  0  0  0  0  0
   -3.7837   -1.5272    0.2023 H   0  0  0  0  0  0  0  0  0  0  0  0
   -4.2734   -0.2401   -1.0241 H   0  0  0  0  0  0  0  0  0  0  0  0
   -4.0507    0.2099    0.6939 H   0  0  0  0  0  0  0  0  0  0  0  0
  1  2  1  0
  2  3  1  0
  3  4  1  0
  4  5  1  0
  5  6  1  0
  4  7  1  0
  7  8  2  0
  7  9  1  0
  9 10  1  0
  1 11  1  0
  1 12  1  0
  1 13  1  0
  3 14  1  0
  4 15  1  6
  5 16  1  0
  5 17  1  0
  6 18  1  0
  6 19  1  0
 10 20  1  0
 10 21  1  0
 10 22  1  0
M  END
$$$$

     RDKit          3D

 22 21  0  0  0  0  0  0  0  0999 V2000
    3.6027   -0.5848    0.5821 C   0  0  0  0  0  0  0  0  0  0  0  0
    2.4384    0.0045    0.1283 O   0  0  0  0  0  0  0  0  0  0  0  0
    1.3242   -0.6133    0.6374 N   0  0  0  0  0  0  0  0  0  0  0  0
    0.2229   -0.1414   -0.1833 C   0  0  2  0  0  0  0  0  0  0  0  0
    0.1699    1.3650   -0.0394 C   0  0  0  0  0  0  0  0  0  0  0  0
   -0.8992    1.9386   -0.8219 N   0  0  0  0  0  0  0  0  0  0  0  0
   -1.0585   -0.7792    0.1965 C   0  0  0  0  0  0  0  0  0  0  0  0
   -1.0715   -1.6158    1.1339 O   0  0  0  0  0  0  0  0  0  0  0  0
   -2.2320   -0.4609   -0.4705 O   0  0  0  0  0  0  0  0  0  0  0  0
   -3.4617   -1.0680   -0.1117 C   0  0  0  0  0  0  0  0  0  0  0  0
    4.1684    0.1961    1.1564 H   0  0  0  0  0  0  0  0  0  0  0  0
    4.2352   -0.7747   -0.3284 H   0  0  0  0  0  0  0  0  0  0  0  0
    3.4471   -1.5044    1.1489 H   0  0  0  0  0  0  0  0  0  0  0  0
    1.1357   -0.2782    1.6051 H   0  0  0  0  0  0  0  0  0  0  0  0
    0.4516   -0.4017   -1.2215 H   0  0  0  0  0  0  0  0  0  0  0  0
    0.1142    1.6461    1.0280 H   0  0  0  0  0  0  0  0  0  0  0  0
    1.1426    1.7535   -0.4192 H   0  0  0  0  0  0  0  0  0  0  0  0
   -0.6378    2.9484   -0.9816 H   0  0  0  0  0  0  0  0  0  0  0  0
   -1.7846    1.9934   -0.2416 H   0  0  0  0  0  0  0  0  0  0  0  0
   -4.1092   -0.2486    0.2790 H   0  0  0  0  0  0  0  0  0  0  0  0
   -3.2692   -1.8634    0.6212 H   0  0  0  0  0  0  0  0  0  0  0  0
   -3.9291   -1.5110   -1.0246 H   0  0  0  0  0  0  0  0  0  0  0  0
  1  2  1  0
  2  3  1  0
  3  4  1  0
  4  5  1  0
  5  6  1  0
  4  7  1  0
  7  8  2  0
  7  9  1  0
  9 10  1  0
  1 11  1  0
  1 12  1  0
  1 13  1  0
  3 14  1  0
  4 15  1  6
  5 16  1  0
  5 17  1  0
  6 18  1  0
  6 19  1  0
 10 20  1  0
 10 21  1  0
 10 22  1  0
M  END
$$$$
