
     RDKit          3D

 23 22  0  0  0  0  0  0  0  0999 V2000
   -2.8212    0.9831   -0.1343 C   0  0  0  0  0  0  0  0  0  0  0  0
   -2.3734   -0.2494    0.3647 N   0  0  0  0  0  0  0  0  0  0  0  0
   -1.0671   -0.3704    0.8494 C   0  0  0  0  0  0  0  0  0  0  0  0
    0.0445   -0.2757   -0.1761 C   0  0  2  0  0  0  0  0  0  0  0  0
   -0.0766   -1.3489   -1.2296 C   0  0  0  0  0  0  0  0  0  0  0  0
    1.3387   -0.4675    0.4448 N   0  0  0  0  0  0  0  0  0  0  0  0
    2.3677    0.8724    0.2761 S   0  0  0  0  0  6  0  0  0  0  0  0
    3.2682    0.7580   -1.1733 N   0  0  0  0  0  0  0  0  0  0  0  0
    3.3309    0.9073    1.4512 O   0  0  0  0  0  0  0  0  0  0  0  0
    1.5689    2.1534    0.2626 O   0  0  0  0  0  0  0  0  0  0  0  0
   -3.8023    0.8220   -0.6708 H   0  0  0  0  0  0  0  0  0  0  0  0
   -2.1443    1.4824   -0.8290 H   0  0  0  0  0  0  0  0  0  0  0  0
   -3.0927    1.6648    0.7258 H   0  0  0  0  0  0  0  0  0  0  0  0
   -3.0816   -0.9494    0.6159 H   0  0  0  0  0  0  0  0  0  0  0  0
   -0.9422   -1.3371    1.3760 H   0  0  0  0  0  0  0  0  0  0  0  0
   -0.8456    0.4123    1.6459 H   0  0  0  0  0  0  0  0  0  0  0  0
    0.0317    0.7085   -0.6320 H   0  0  0  0  0  0  0  0  0  0  0  0
   -0.9852   -1.2291   -1.8519 H   0  0  0  0  0  0  0  0  0  0  0  0
   -0.1694   -2.3381   -0.6944 H   0  0  0  0  0  0  0  0  0  0  0  0
    0.8199   -1.3838   -1.8661 H   0  0  0  0  0  0  0  0  0  0  0  0
    1.7618   -1.3914    0.2728 H   0  0  0  0  0  0  0  0  0  0  0  0
    2.7385    0.4022   -1.9821 H   0  0  0  0  0  0  0  0  0  0  0  0
    4.1307    0.1743   -1.0737 H   0  0  0  0  0  0  0  0  0  0  0  0
  1  2  1  0
  2  3  1  0
  3  4  1  0
  4  5  1  0
  4  6  1  0
  6  7  1  0
  7  8  1  0
  7  9  2  0
  7 10  2  0
  1 11  1  0
  1 12  1  0
  1 13  1  0
  2 14  1  0
  3 15  1  0
  3 16  1  0
  4 17  1  6
  5 18  1  0
  5 19  1  0
  5 20  1  0
  6 21  1  0
  8 22  1  0
  8 23  1  0
M  END
$$$$

     RDKit          3D

 23 22  0  0  0  0  0  0  0  0999 V2000
   -2.8983   -0.0173   -0.6215 C   0  0  0  0  0  0  0  0  0  0  0  0
   -2.2762   -1.0538    0.1599 N   0  0  0  0  0  0  0  0  0  0  0  0
   -1.1295   -0.6276    0.9182 C   0  0  0  0  0  0  0  0  0  0  0  0
    0.0690   -0.2761    0.1120 C   0  0  2  0  0  0  0  0  0  0  0  0
    0.5427   -1.4743   -0.7137 C   0  0  0  0  0  0  0  0  0  0  0  0
    1.1656    0.2402    0.8300 N   0  0  0  0  0  0  0  0  0  0  0  0
    1.7572    1.7523    0.4224 S   0  0  0  0  0  6  0  0  0  0  0  0
    3.0386    1.5846   -0.7225 N   0  0  0  0  0  0  0  0  0  0  0  0
    2.2050    2.6092    1.5283 O   0  0  0  0  0  0  0  0  0  0  0  0
    0.6466    2.4809   -0.3354 O   0  0  0  0  0  0  0  0  0  0  0  0
   -3.3075   -0.3597   -1.5945 H   0  0  0  0  0  0  0  0  0  0  0  0
   -2.1824    0.8109   -0.7722 H   0  0  0  0  0  0  0  0  0  0  0  0
   -3.6999    0.4122    0.0270 H   0  0  0  0  0  0  0  0  0  0  0  0
   -2.1449   -1.9540   -0.3480 H   0  0  0  0  0  0  0  0  0  0  0  0
   -0.8435   -1.5233    1.5478 H   0  0  0  0  0  0  0  0  0  0  0  0
   -1.4762    0.1906    1.5817 H   0  0  0  0  0  0  0  0  0  0  0  0
   -0.2210    0.4772   -0.6468 H   0  0  0  0  0  0  0  0  0  0  0  0
    1.2906   -1.0978   -1.4370 H   0  0  0  0  0  0  0  0  0  0  0  0
   -0.3378   -1.7907   -1.3466 H   0  0  0  0  0  0  0  0  0  0  0  0
    0.8986   -2.3093   -0.0833 H   0  0  0  0  0  0  0  0  0  0  0  0
    1.8899   -0.4230    1.1322 H   0  0  0  0  0  0  0  0  0  0  0  0
    3.0503    0.6139   -1.1249 H   0  0  0  0  0  0  0  0  0  0  0  0
    3.9630    1.7347   -0.2704 H   0  0  0  0  0  0  0  0  0  0  0  0
  1  2  1  0
  2  3  1  0
  3  4  1  0
  4  5  1  0
  4  6  1  0
  6  7  1  0
  7  8  1  0
  7  9  2  0
  7 10  2  0
  1 11  1  0
  1 12  1  0
  1 13  1  0
  2 14  1  0
  3 15  1  0
  3 16  1  0
  4 17  1  6
  5 18  1  0
  5 19  1  0
  5 20  1  0
  6 21  1  0
  8 22  1  0
  8 23  1  0
M  END
$$$$

     RDKit          3D

 23 22  0  0  0  0  0  0  0  0999 V2000
   -1.9382   -1.5487   -0.8566 C   0  0  0  0  0  0  0  0  0  0  0  0
   -2.1362   -0.8274    0.3597 N   0  0  0  0  0  0  0  0  0  0  0  0
   -1.6086    0.4894    0.4100 C   0  0  0  0  0  0  0  0  0  0  0  0
   -0.1230    0.6190    0.4241 C   0  0  2  0  0  0  0  0  0  0  0  0
    0.1410    2.1387    0.4773 C   0  0  0  0  0  0  0  0  0  0  0  0
    0.5682    0.1037   -0.7093 N   0  0  0  0  0  0  0  0  0  0  0  0
    1.8330   -0.9714   -0.2497 S   0  0  0  0  0  6  0  0  0  0  0  0
    3.3067   -0.0880    0.0035 N   0  0  0  0  0  0  0  0  0  0  0  0
    2.1057   -2.0076   -1.3186 O   0  0  0  0  0  0  0  0  0  0  0  0
    1.5020   -1.7089    1.0208 O   0  0  0  0  0  0  0  0  0  0  0  0
   -2.3870   -2.5724   -0.6922 H   0  0  0  0  0  0  0  0  0  0  0  0
   -2.5382   -1.1339   -1.7037 H   0  0  0  0  0  0  0  0  0  0  0  0
   -0.8925   -1.7443   -1.1383 H   0  0  0  0  0  0  0  0  0  0  0  0
   -3.1614   -0.7746    0.5338 H   0  0  0  0  0  0  0  0  0  0  0  0
   -2.0673    1.1666   -0.3660 H   0  0  0  0  0  0  0  0  0  0  0  0
   -1.9649    0.9443    1.3825 H   0  0  0  0  0  0  0  0  0  0  0  0
    0.2890    0.2007    1.3737 H   0  0  0  0  0  0  0  0  0  0  0  0
   -0.1112    2.4418    1.5109 H   0  0  0  0  0  0  0  0  0  0  0  0
    1.2052    2.3173    0.2562 H   0  0  0  0  0  0  0  0  0  0  0  0
   -0.4922    2.6272   -0.2847 H   0  0  0  0  0  0  0  0  0  0  0  0
    0.9852    0.8586   -1.2966 H   0  0  0  0  0  0  0  0  0  0  0  0
    4.1331   -0.7047   -0.1708 H   0  0  0  0  0  0  0  0  0  0  0  0
    3.3517    0.1746    1.0340 H   0  0  0  0  0  0  0  0  0  0  0  0
  1  2  1  0
  2  3  1  0
  3  4  1  0
  4  5  1  0
  4  6  1  0
  6  7  1  0
  7  8  1  0
  7  9  2  0
  7 10  2  0
  1 11  1  0
  1 12  1  0
  1 13  1  0
  2 14  1  0
  3 15  1  0
  3 16  1  0
  4 17  1  1
  5 18  1  0
  5 19  1  0
  5 20  1  0
  6 21  1  0
  8 22  1  0
  8 23  1  0
M  END
$$$$

     RDKit          3D

 23 22  0  0  0  0  0  0  0  0999 V2000
    3.0003    1.1450    0.7979 C   0  0  0  0  0  0  0  0  0  0  0  0
    1.8419    0.3168    1.0591 N   0  0  0  0  0  0  0  0  0  0  0  0
    0.9564    0.2805   -0.1120 C   0  0  0  0  0  0  0  0  0  0  0  0
   -0.2428   -0.5863    0.1801 C   0  0  2  0  0  0  0  0  0  0  0  0
    0.2466   -1.9857    0.5001 C   0  0  0  0  0  0  0  0  0  0  0  0
   -1.0645   -0.6703   -1.0012 N   0  0  0  0  0  0  0  0  0  0  0  0
   -2.6739   -0.1241   -0.6790 S   0  0  0  0  0  6  0  0  0  0  0  0
   -2.7501    1.5713   -0.9875 N   0  0  0  0  0  0  0  0  0  0  0  0
   -2.9792   -0.3829    0.7881 O   0  0  0  0  0  0  0  0  0  0  0  0
   -3.6209   -0.9038   -1.5355 O   0  0  0  0  0  0  0  0  0  0  0  0
    3.8700    0.8227    1.4028 H   0  0  0  0  0  0  0  0  0  0  0  0
    2.7629    2.2248    0.9164 H   0  0  0  0  0  0  0  0  0  0  0  0
    3.2660    0.9826   -0.2791 H   0  0  0  0  0  0  0  0  0  0  0  0
    2.1120   -0.6219    1.3727 H   0  0  0  0  0  0  0  0  0  0  0  0
    0.6287    1.3356   -0.2834 H   0  0  0  0  0  0  0  0  0  0  0  0
    1.4909   -0.0466   -1.0203 H   0  0  0  0  0  0  0  0  0  0  0  0
   -0.8622   -0.1889    0.9940 H   0  0  0  0  0  0  0  0  0  0  0  0
   -0.4459   -2.7145    0.0721 H   0  0  0  0  0  0  0  0  0  0  0  0
    1.2609   -2.1088    0.1233 H   0  0  0  0  0  0  0  0  0  0  0  0
    0.2326   -2.1265    1.6015 H   0  0  0  0  0  0  0  0  0  0  0  0
   -0.6688   -0.0345   -1.7227 H   0  0  0  0  0  0  0  0  0  0  0  0
   -3.0616    1.7318   -1.9693 H   0  0  0  0  0  0  0  0  0  0  0  0
   -3.2993    2.0837   -0.2760 H   0  0  0  0  0  0  0  0  0  0  0  0
  1  2  1  0
  2  3  1  0
  3  4  1  0
  4  5  1  0
  4  6  1  0
  6  7  1  0
  7  8  1  0
  7  9  2  0
  7 10  2  0
  1 11  1  0
  1 12  1  0
  1 13  1  0
  2 14  1  0
  3 15  1  0
  3 16  1  0
  4 17  1  1
  5 18  1  0
  5 19  1  0
  5 20  1  0
  6 21  1  0
  8 22  1  0
  8 23  1  0
M  END
$$$$

     RDKit          3D

 23 22  0  0  0  0  0  0  0  0999 V2000
   -2.9902    1.2149    0.1285 C   0  0  0  0  0  0  0  0  0  0  0  0
   -1.9466    0.3627   -0.3678 N   0  0  0  0  0  0  0  0  0  0  0  0
   -0.8667    0.1688    0.5654 C   0  0  0  0  0  0  0  0  0  0  0  0
    0.1423   -0.7450   -0.1059 C   0  0  2  0  0  0  0  0  0  0  0  0
   -0.5299   -2.0234   -0.4208 C   0  0  0  0  0  0  0  0  0  0  0  0
    1.2998   -0.8123    0.7102 N   0  0  0  0  0  0  0  0  0  0  0  0
    2.7170   -0.1551    0.0541 S   0  0  0  0  0  6  0  0  0  0  0  0
    2.8851    1.5323    0.4480 N   0  0  0  0  0  0  0  0  0  0  0  0
    2.8807   -0.4026   -1.4025 O   0  0  0  0  0  0  0  0  0  0  0  0
    3.8887   -0.8482    0.7422 O   0  0  0  0  0  0  0  0  0  0  0  0
   -3.7161    1.3684   -0.6931 H   0  0  0  0  0  0  0  0  0  0  0  0
   -2.5590    2.1911    0.4250 H   0  0  0  0  0  0  0  0  0  0  0  0
   -3.4667    0.7223    0.9949 H   0  0  0  0  0  0  0  0  0  0  0  0
   -1.6491    0.5467   -1.3298 H   0  0  0  0  0  0  0  0  0  0  0  0
   -1.2748   -0.4077    1.4269 H   0  0  0  0  0  0  0  0  0  0  0  0
   -0.4004    1.0897    0.9137 H   0  0  0  0  0  0  0  0  0  0  0  0
    0.4077   -0.2412   -1.0813 H   0  0  0  0  0  0  0  0  0  0  0  0
   -0.4854   -2.7137    0.4660 H   0  0  0  0  0  0  0  0  0  0  0  0
   -1.6110   -1.8270   -0.5827 H   0  0  0  0  0  0  0  0  0  0  0  0
   -0.1700   -2.5279   -1.3383 H   0  0  0  0  0  0  0  0  0  0  0  0
    1.1335   -0.4049    1.6521 H   0  0  0  0  0  0  0  0  0  0  0  0
    3.8897    1.7722    0.6044 H   0  0  0  0  0  0  0  0  0  0  0  0
    2.4214    2.1399   -0.2362 H   0  0  0  0  0  0  0  0  0  0  0  0
  1  2  1  0
  2  3  1  0
  3  4  1  0
  4  5  1  0
  4  6  1  0
  6  7  1  0
  7  8  1  0
  7  9  2  0
  7 10  2  0
  1 11  1  0
  1 12  1  0
  1 13  1  0
  2 14  1  0
  3 15  1  0
  3 16  1  0
  4 17  1  6
  5 18  1  0
  5 19  1  0
  5 20  1  0
  6 21  1  0
  8 22  1  0
  8 23  1  0
M  END
$$$$

     RDKit          3D

 23 22  0  0  0  0  0  0  0  0999 V2000
    2.6656   -0.4347   -0.5880 C   0  0  0  0  0  0  0  0  0  0  0  0
    2.2764    0.5033    0.4648 N   0  0  0  0  0  0  0  0  0  0  0  0
    0.9632    0.2270    0.9627 C   0  0  0  0  0  0  0  0  0  0  0  0
   -0.0923    0.5261   -0.0625 C   0  0  2  0  0  0  0  0  0  0  0  0
    0.0204    2.0068   -0.4078 C   0  0  0  0  0  0  0  0  0  0  0  0
   -1.3698    0.2820    0.4965 N   0  0  0  0  0  0  0  0  0  0  0  0
   -2.4022   -0.7445   -0.3352 S   0  0  0  0  0  6  0  0  0  0  0  0
   -2.1586   -2.3836    0.1192 N   0  0  0  0  0  0  0  0  0  0  0  0
   -2.2164   -0.5568   -1.8131 O   0  0  0  0  0  0  0  0  0  0  0  0
   -3.8583   -0.4180   -0.0180 O   0  0  0  0  0  0  0  0  0  0  0  0
    2.8533   -1.4556   -0.1514 H   0  0  0  0  0  0  0  0  0  0  0  0
    1.9442   -0.4415   -1.4196 H   0  0  0  0  0  0  0  0  0  0  0  0
    3.6639   -0.0927   -0.9853 H   0  0  0  0  0  0  0  0  0  0  0  0
    2.9454    0.3671    1.2644 H   0  0  0  0  0  0  0  0  0  0  0  0
    0.8485   -0.7876    1.4140 H   0  0  0  0  0  0  0  0  0  0  0  0
    0.7860    0.9492    1.8032 H   0  0  0  0  0  0  0  0  0  0  0  0
    0.0070   -0.0313   -1.0062 H   0  0  0  0  0  0  0  0  0  0  0  0
   -0.4392    2.2215   -1.4070 H   0  0  0  0  0  0  0  0  0  0  0  0
    1.0928    2.2884   -0.4285 H   0  0  0  0  0  0  0  0  0  0  0  0
   -0.5300    2.5501    0.4168 H   0  0  0  0  0  0  0  0  0  0  0  0
   -1.7494    0.9409    1.1537 H   0  0  0  0  0  0  0  0  0  0  0  0
   -2.4417   -2.5395    1.1073 H   0  0  0  0  0  0  0  0  0  0  0  0
   -2.8087   -2.9764   -0.4790 H   0  0  0  0  0  0  0  0  0  0  0  0
  1  2  1  0
  2  3  1  0
  3  4  1  0
  4  5  1  0
  4  6  1  0
  6  7  1  0
  7  8  1  0
  7  9  2  0
  7 10  2  0
  1 11  1  0
  1 12  1  0
  1 13  1  0
  2 14  1  0
  3 15  1  0
  3 16  1  0
  4 17  1  6
  5 18  1  0
  5 19  1  0
  5 20  1  0
  6 21  1  0
  8 22  1  0
  8 23  1  0
M  END
$$$$

     RDKit          3D

 23 22  0  0  0  0  0  0  0  0999 V2000
   -3.1038    1.0323    0.0424 C   0  0  0  0  0  0  0  0  0  0  0  0
   -2.1317    0.1310   -0.5472 N   0  0  0  0  0  0  0  0  0  0  0  0
   -0.9031    0.2640    0.2041 C   0  0  0  0  0  0  0  0  0  0  0  0
    0.1890   -0.6385   -0.3289 C   0  0  2  0  0  0  0  0  0  0  0  0
   -0.2444   -2.0959   -0.2529 C   0  0  0  0  0  0  0  0  0  0  0  0
    1.3248   -0.5031    0.5676 N   0  0  0  0  0  0  0  0  0  0  0  0
    2.7363    0.0208   -0.2700 S   0  0  0  0  0  6  0  0  0  0  0  0
    2.7581    1.7432   -0.2420 N   0  0  0  0  0  0  0  0  0  0  0  0
    3.9284   -0.5069    0.4746 O   0  0  0  0  0  0  0  0  0  0  0  0
    2.7479   -0.5179   -1.6705 O   0  0  0  0  0  0  0  0  0  0  0  0
   -2.7057    1.5304    0.9566 H   0  0  0  0  0  0  0  0  0  0  0  0
   -3.3746    1.8399   -0.6549 H   0  0  0  0  0  0  0  0  0  0  0  0
   -4.0221    0.5004    0.3690 H   0  0  0  0  0  0  0  0  0  0  0  0
   -2.4831   -0.8496   -0.3531 H   0  0  0  0  0  0  0  0  0  0  0  0
   -0.5116    1.3109    0.1152 H   0  0  0  0  0  0  0  0  0  0  0  0
   -1.0344    0.0590    1.2695 H   0  0  0  0  0  0  0  0  0  0  0  0
    0.4672   -0.3752   -1.3718 H   0  0  0  0  0  0  0  0  0  0  0  0
   -1.0951   -2.3241   -0.9012 H   0  0  0  0  0  0  0  0  0  0  0  0
   -0.4221   -2.3040    0.8239 H   0  0  0  0  0  0  0  0  0  0  0  0
    0.6445   -2.6955   -0.5368 H   0  0  0  0  0  0  0  0  0  0  0  0
    1.1269    0.0608    1.4023 H   0  0  0  0  0  0  0  0  0  0  0  0
    2.5682    2.1787   -1.1519 H   0  0  0  0  0  0  0  0  0  0  0  0
    3.5405    2.1393    0.2976 H   0  0  0  0  0  0  0  0  0  0  0  0
  1  2  1  0
  2  3  1  0
  3  4  1  0
  4  5  1  0
  4  6  1  0
  6  7  1  0
  7  8  1  0
  7  9  2  0
  7 10  2  0
  1 11  1  0
  1 12  1  0
  1 13  1  0
  2 14  1  0
  3 15  1  0
  3 16  1  0
  4 17  1  6
  5 18  1  0
  5 19  1  0
  5 20  1  0
  6 21  1  0
  8 22  1  0
  8 23  1  0
M  END
$$$$

     RDKit          3D

 23 22  0  0  0  0  0  0  0  0999 V2000
    3.4655   -0.3684   -0.0577 C   0  0  0  0  0  0  0  0  0  0  0  0
    2.1685    0.2139   -0.2582 N   0  0  0  0  0  0  0  0  0  0  0  0
    1.0852   -0.6018    0.2137 C   0  0  0  0  0  0  0  0  0  0  0  0
   -0.1997    0.1106   -0.0515 C   0  0  2  0  0  0  0  0  0  0  0  0
   -0.1972    1.4236    0.6696 C   0  0  0  0  0  0  0  0  0  0  0  0
   -1.3739   -0.6843    0.2008 N   0  0  0  0  0  0  0  0  0  0  0  0
   -2.3221   -0.9622   -1.1976 S   0  0  0  0  0  6  0  0  0  0  0  0
   -3.4762    0.3177   -1.3227 N   0  0  0  0  0  0  0  0  0  0  0  0
   -3.0603   -2.2558   -1.1580 O   0  0  0  0  0  0  0  0  0  0  0  0
   -1.4203   -0.8585   -2.3967 O   0  0  0  0  0  0  0  0  0  0  0  0
    4.1991    0.4332    0.0939 H   0  0  0  0  0  0  0  0  0  0  0  0
    3.5183   -1.0433    0.8159 H   0  0  0  0  0  0  0  0  0  0  0  0
    3.7233   -0.9454   -0.9724 H   0  0  0  0  0  0  0  0  0  0  0  0
    2.0972    1.2094   -0.0420 H   0  0  0  0  0  0  0  0  0  0  0  0
    1.0781   -1.5341   -0.4207 H   0  0  0  0  0  0  0  0  0  0  0  0
    1.2224   -0.8586    1.2800 H   0  0  0  0  0  0  0  0  0  0  0  0
   -0.2159    0.3510   -1.1546 H   0  0  0  0  0  0  0  0  0  0  0  0
   -1.1893    1.7593    0.9954 H   0  0  0  0  0  0  0  0  0  0  0  0
    0.4479    1.3977    1.5718 H   0  0  0  0  0  0  0  0  0  0  0  0
    0.2327    2.2373    0.0254 H   0  0  0  0  0  0  0  0  0  0  0  0
   -1.9478   -0.3008    0.9740 H   0  0  0  0  0  0  0  0  0  0  0  0
   -3.3789    1.0198   -0.5600 H   0  0  0  0  0  0  0  0  0  0  0  0
   -4.4569   -0.0602   -1.3956 H   0  0  0  0  0  0  0  0  0  0  0  0
  1  2  1  0
  2  3  1  0
  3  4  1  0
  4  5  1  0
  4  6  1  0
  6  7  1  0
  7  8  1  0
  7  9  2  0
  7 10  2  0
  1 11  1  0
  1 12  1  0
  1 13  1  0
  2 14  1  0
  3 15  1  0
  3 16  1  0
  4 17  1  6
  5 18  1  0
  5 19  1  0
  5 20  1  0
  6 21  1  0
  8 22  1  0
  8 23  1  0
M  END
$$$$
