
     RDKit          3D

 26 26  0  0  0  0  0  0  0  0999 V2000
    2.8332    0.2629   -0.3686 C   0  0  0  0  0  0  0  0  0  0  0  0
    2.1628    0.8959    0.8384 C   0  0  1  0  0  0  0  0  0  0  0  0
    1.7905    2.2000    0.5423 O   0  0  0  0  0  0  0  0  0  0  0  0
    0.9852    0.0470    1.2610 C   0  0  0  0  0  0  0  0  0  0  0  0
   -0.0255   -0.0510    0.2642 N   0  0  0  0  0  0  0  0  0  0  0  0
   -0.3581   -1.3279   -0.1938 C   0  0  0  0  0  0  0  0  0  0  0  0
   -1.7819   -1.6138   -0.4841 C   0  0  0  0  0  0  0  0  0  0  0  0
   -2.5376   -0.5158   -1.1472 C   0  0  0  0  0  0  0  0  0  0  0  0
   -2.7869    0.5499   -0.1657 N   0  0  0  0  0  0  0  0  0  0  0  0
   -1.2320    1.1192    0.3082 S   0  0  0  0  0  6  0  0  0  0  0  0
   -0.8637    2.2249   -0.6720 O   0  0  0  0  0  0  0  0  0  0  0  0
   -1.3011    1.7794    1.6655 O   0  0  0  0  0  0  0  0  0  0  0  0
    2.3023    0.5951   -1.3034 H   0  0  0  0  0  0  0  0  0  0  0  0
    2.8469   -0.8346   -0.2991 H   0  0  0  0  0  0  0  0  0  0  0  0
    3.8753    0.6105   -0.4873 H   0  0  0  0  0  0  0  0  0  0  0  0
    2.8994    0.9066    1.6666 H   0  0  0  0  0  0  0  0  0  0  0  0
    1.9858    2.4481   -0.4081 H   0  0  0  0  0  0  0  0  0  0  0  0
    1.3788   -0.9226    1.6208 H   0  0  0  0  0  0  0  0  0  0  0  0
    0.5234    0.5461    2.1590 H   0  0  0  0  0  0  0  0  0  0  0  0
    0.0008   -2.1089    0.5401 H   0  0  0  0  0  0  0  0  0  0  0  0
    0.2350   -1.5506   -1.1281 H   0  0  0  0  0  0  0  0  0  0  0  0
   -1.8117   -2.5014   -1.1843 H   0  0  0  0  0  0  0  0  0  0  0  0
   -2.3355   -1.9820    0.4261 H   0  0  0  0  0  0  0  0  0  0  0  0
   -1.9453   -0.0796   -1.9542 H   0  0  0  0  0  0  0  0  0  0  0  0
   -3.4973   -0.9174   -1.5294 H   0  0  0  0  0  0  0  0  0  0  0  0
   -3.3429    0.2201    0.6331 H   0  0  0  0  0  0  0  0  0  0  0  0
  1  2  1  0
  2  3  1  0
  2  4  1  0
  4  5  1  0
  5  6  1  0
  6  7  1  0
  7  8  1  0
  8  9  1  0
  9 10  1  0
 10 11  2  0
 10 12  2  0
 10  5  1  0
  1 13  1  0
  1 14  1  0
  1 15  1  0
  2 16  1  1
  3 17  1  0
  4 18  1  0
  4 19  1  0
  6 20  1  0
  6 21  1  0
  7 22  1  0
  7 23  1  0
  8 24  1  0
  8 25  1  0
  9 26  1  0
M  END
$$$$

     RDKit          3D

 26 26  0  0  0  0  0  0  0  0999 V2000
    3.4604   -0.5368   -0.0319 C   0  0  0  0  0  0  0  0  0  0  0  0
    2.2092   -0.0704    0.6798 C   0  0  1  0  0  0  0  0  0  0  0  0
    2.2671    1.3114    0.8135 O   0  0  0  0  0  0  0  0  0  0  0  0
    0.9559   -0.4947   -0.0450 C   0  0  0  0  0  0  0  0  0  0  0  0
   -0.1765   -0.0563    0.6934 N   0  0  0  0  0  0  0  0  0  0  0  0
   -1.2154   -1.0141    0.8631 C   0  0  0  0  0  0  0  0  0  0  0  0
   -2.2044   -1.0497   -0.2717 C   0  0  0  0  0  0  0  0  0  0  0  0
   -2.9767    0.2361   -0.4087 C   0  0  0  0  0  0  0  0  0  0  0  0
   -2.2191    1.4017   -0.5070 N   0  0  0  0  0  0  0  0  0  0  0  0
   -0.7558    1.4877    0.2933 S   0  0  0  0  0  6  0  0  0  0  0  0
   -0.9479    2.2575    1.5933 O   0  0  0  0  0  0  0  0  0  0  0  0
    0.2202    2.3003   -0.5180 O   0  0  0  0  0  0  0  0  0  0  0  0
    3.6200   -1.6414    0.1059 H   0  0  0  0  0  0  0  0  0  0  0  0
    3.4094   -0.3106   -1.1042 H   0  0  0  0  0  0  0  0  0  0  0  0
    4.3099    0.0296    0.4055 H   0  0  0  0  0  0  0  0  0  0  0  0
    2.1618   -0.5301    1.6936 H   0  0  0  0  0  0  0  0  0  0  0  0
    2.8545    1.6896    0.1021 H   0  0  0  0  0  0  0  0  0  0  0  0
    0.9531   -1.5754   -0.2037 H   0  0  0  0  0  0  0  0  0  0  0  0
    1.0213   -0.0312   -1.0696 H   0  0  0  0  0  0  0  0  0  0  0  0
   -1.7267   -0.7880    1.8406 H   0  0  0  0  0  0  0  0  0  0  0  0
   -0.7873   -2.0328    0.9558 H   0  0  0  0  0  0  0  0  0  0  0  0
   -1.6649   -1.3280   -1.1804 H   0  0  0  0  0  0  0  0  0  0  0  0
   -2.9372   -1.8527   -0.0408 H   0  0  0  0  0  0  0  0  0  0  0  0
   -3.6090    0.1234   -1.3303 H   0  0  0  0  0  0  0  0  0  0  0  0
   -3.7026    0.3121    0.4340 H   0  0  0  0  0  0  0  0  0  0  0  0
   -2.5191    2.1629   -1.0907 H   0  0  0  0  0  0  0  0  0  0  0  0
  1  2  1  0
  2  3  1  0
  2  4  1  0
  4  5  1  0
  5  6  1  0
  6  7  1  0
  7  8  1  0
  8  9  1  0
  9 10  1  0
 10 11  2  0
 10 12  2  0
 10  5  1  0
  1 13  1  0
  1 14  1  0
  1 15  1  0
  2 16  1  1
  3 17  1  0
  4 18  1  0
  4 19  1  0
  6 20  1  0
  6 21  1  0
  7 22  1  0
  7 23  1  0
  8 24  1  0
  8 25  1  0
  9 26  1  0
M  END
$$$$

     RDKit          3D

 26 26  0  0  0  0  0  0  0  0999 V2000
    3.5140    0.4378   -0.6298 C   0  0  0  0  0  0  0  0  0  0  0  0
    2.2787   -0.2485   -0.0812 C   0  0  1  0  0  0  0  0  0  0  0  0
    2.4487   -0.4050    1.2917 O   0  0  0  0  0  0  0  0  0  0  0  0
    1.0694    0.6275   -0.3421 C   0  0  0  0  0  0  0  0  0  0  0  0
   -0.0905   -0.0091    0.2271 N   0  0  0  0  0  0  0  0  0  0  0  0
   -0.9921    0.9784    0.7444 C   0  0  0  0  0  0  0  0  0  0  0  0
   -2.2019    0.2223    1.3040 C   0  0  0  0  0  0  0  0  0  0  0  0
   -3.1146   -0.0255    0.1149 C   0  0  0  0  0  0  0  0  0  0  0  0
   -2.5798   -1.0148   -0.7651 N   0  0  0  0  0  0  0  0  0  0  0  0
   -0.8856   -1.0568   -0.8565 S   0  0  0  0  0  6  0  0  0  0  0  0
   -0.4781   -0.6889   -2.2663 O   0  0  0  0  0  0  0  0  0  0  0  0
   -0.4183   -2.4747   -0.6174 O   0  0  0  0  0  0  0  0  0  0  0  0
    3.4129    1.5401   -0.6221 H   0  0  0  0  0  0  0  0  0  0  0  0
    4.4125    0.1733   -0.0614 H   0  0  0  0  0  0  0  0  0  0  0  0
    3.7085    0.1452   -1.6910 H   0  0  0  0  0  0  0  0  0  0  0  0
    2.1999   -1.2285   -0.5762 H   0  0  0  0  0  0  0  0  0  0  0  0
    2.3253   -1.3710    1.5256 H   0  0  0  0  0  0  0  0  0  0  0  0
    0.9494    0.8669   -1.4053 H   0  0  0  0  0  0  0  0  0  0  0  0
    1.2462    1.5931    0.1859 H   0  0  0  0  0  0  0  0  0  0  0  0
   -0.5465    1.6402    1.4917 H   0  0  0  0  0  0  0  0  0  0  0  0
   -1.3291    1.6318   -0.0981 H   0  0  0  0  0  0  0  0  0  0  0  0
   -2.7004    0.7779    2.0989 H   0  0  0  0  0  0  0  0  0  0  0  0
   -1.8842   -0.7756    1.6923 H   0  0  0  0  0  0  0  0  0  0  0  0
   -4.1269   -0.3553    0.4458 H   0  0  0  0  0  0  0  0  0  0  0  0
   -3.1758    0.9408   -0.4615 H   0  0  0  0  0  0  0  0  0  0  0  0
   -3.0415   -1.9218   -0.6485 H   0  0  0  0  0  0  0  0  0  0  0  0
  1  2  1  0
  2  3  1  0
  2  4  1  0
  4  5  1  0
  5  6  1  0
  6  7  1  0
  7  8  1  0
  8  9  1  0
  9 10  1  0
 10 11  2  0
 10 12  2  0
 10  5  1  0
  1 13  1  0
  1 14  1  0
  1 15  1  0
  2 16  1  6
  3 17  1  0
  4 18  1  0
  4 19  1  0
  6 20  1  0
  6 21  1  0
  7 22  1  0
  7 23  1  0
  8 24  1  0
  8 25  1  0
  9 26  1  0
M  END
$$$$

     RDKit          3D

 26 26  0  0  0  0  0  0  0  0999 V2000
    3.5424    0.3266   -0.2888 C   0  0  0  0  0  0  0  0  0  0  0  0
    2.2062   -0.2904   -0.5925 C   0  0  1  0  0  0  0  0  0  0  0  0
    2.1392   -1.5619   -0.0211 O   0  0  0  0  0  0  0  0  0  0  0  0
    1.0741    0.5607   -0.0047 C   0  0  0  0  0  0  0  0  0  0  0  0
   -0.1950   -0.0114   -0.2834 N   0  0  0  0  0  0  0  0  0  0  0  0
   -1.1527    0.8408   -0.8834 C   0  0  0  0  0  0  0  0  0  0  0  0
   -2.5392    0.2709   -0.6687 C   0  0  0  0  0  0  0  0  0  0  0  0
   -2.8853    0.4385    0.7942 C   0  0  0  0  0  0  0  0  0  0  0  0
   -2.3292   -0.7237    1.4847 N   0  0  0  0  0  0  0  0  0  0  0  0
   -0.7820   -1.1037    0.8660 S   0  0  0  0  0  6  0  0  0  0  0  0
    0.1807   -1.1083    2.0438 O   0  0  0  0  0  0  0  0  0  0  0  0
   -0.7668   -2.4916    0.2370 O   0  0  0  0  0  0  0  0  0  0  0  0
    4.2754    0.0797   -1.0963 H   0  0  0  0  0  0  0  0  0  0  0  0
    3.9361    0.0362    0.7106 H   0  0  0  0  0  0  0  0  0  0  0  0
    3.4528    1.4349   -0.3044 H   0  0  0  0  0  0  0  0  0  0  0  0
    2.1021   -0.4108   -1.6710 H   0  0  0  0  0  0  0  0  0  0  0  0
    2.7007   -1.5849    0.7859 H   0  0  0  0  0  0  0  0  0  0  0  0
    1.1192    1.5736   -0.4660 H   0  0  0  0  0  0  0  0  0  0  0  0
    1.1996    0.6382    1.0943 H   0  0  0  0  0  0  0  0  0  0  0  0
   -1.0174    0.9512   -1.9969 H   0  0  0  0  0  0  0  0  0  0  0  0
   -1.0861    1.8652   -0.4271 H   0  0  0  0  0  0  0  0  0  0  0  0
   -3.2787    0.7769   -1.3078 H   0  0  0  0  0  0  0  0  0  0  0  0
   -2.4977   -0.8118   -0.9297 H   0  0  0  0  0  0  0  0  0  0  0  0
   -3.9789    0.4893    0.8889 H   0  0  0  0  0  0  0  0  0  0  0  0
   -2.4318    1.3379    1.2383 H   0  0  0  0  0  0  0  0  0  0  0  0
   -2.9876   -1.5220    1.2325 H   0  0  0  0  0  0  0  0  0  0  0  0
  1  2  1  0
  2  3  1  0
  2  4  1  0
  4  5  1  0
  5  6  1  0
  6  7  1  0
  7  8  1  0
  8  9  1  0
  9 10  1  0
 10 11  2  0
 10 12  2  0
 10  5  1  0
  1 13  1  0
  1 14  1  0
  1 15  1  0
  2 16  1  6
  3 17  1  0
  4 18  1  0
  4 19  1  0
  6 20  1  0
  6 21  1  0
  7 22  1  0
  7 23  1  0
  8 24  1  0
  8 25  1  0
  9 26  1  0
M  END
$$$$

     RDKit          3D

 26 26  0  0  0  0  0  0  0  0999 V2000
    3.5374   -0.3965   -0.5455 C   0  0  0  0  0  0  0  0  0  0  0  0
    2.2714   -0.6032    0.2862 C   0  0  1  0  0  0  0  0  0  0  0  0
    2.5457   -0.1094    1.5499 O   0  0  0  0  0  0  0  0  0  0  0  0
    1.1261    0.1679   -0.3367 C   0  0  0  0  0  0  0  0  0  0  0  0
   -0.0483    0.0460    0.4700 N   0  0  0  0  0  0  0  0  0  0  0  0
   -0.7779    1.2739    0.6417 C   0  0  0  0  0  0  0  0  0  0  0  0
   -2.0313    1.2480   -0.1939 C   0  0  0  0  0  0  0  0  0  0  0  0
   -3.0713    0.3563    0.4339 C   0  0  0  0  0  0  0  0  0  0  0  0
   -2.6691   -1.0155    0.5277 N   0  0  0  0  0  0  0  0  0  0  0  0
   -1.0378   -1.2795    0.0630 S   0  0  0  0  0  6  0  0  0  0  0  0
   -0.5317   -2.4838    0.8314 O   0  0  0  0  0  0  0  0  0  0  0  0
   -0.9570   -1.6483   -1.3924 O   0  0  0  0  0  0  0  0  0  0  0  0
    3.6962    0.6992   -0.6249 H   0  0  0  0  0  0  0  0  0  0  0  0
    4.3767   -0.9034   -0.0015 H   0  0  0  0  0  0  0  0  0  0  0  0
    3.3859   -0.8323   -1.5484 H   0  0  0  0  0  0  0  0  0  0  0  0
    2.0753   -1.6942    0.2946 H   0  0  0  0  0  0  0  0  0  0  0  0
    1.7365   -0.1551    2.1400 H   0  0  0  0  0  0  0  0  0  0  0  0
    1.4160    1.2261   -0.4090 H   0  0  0  0  0  0  0  0  0  0  0  0
    1.0067   -0.2158   -1.3721 H   0  0  0  0  0  0  0  0  0  0  0  0
   -0.1413    2.1439    0.3789 H   0  0  0  0  0  0  0  0  0  0  0  0
   -1.0657    1.3714    1.7047 H   0  0  0  0  0  0  0  0  0  0  0  0
   -1.8237    0.9497   -1.2311 H   0  0  0  0  0  0  0  0  0  0  0  0
   -2.4504    2.2876   -0.1637 H   0  0  0  0  0  0  0  0  0  0  0  0
   -3.2481    0.7500    1.4737 H   0  0  0  0  0  0  0  0  0  0  0  0
   -4.0140    0.4957   -0.1380 H   0  0  0  0  0  0  0  0  0  0  0  0
   -3.3063   -1.6786    0.0746 H   0  0  0  0  0  0  0  0  0  0  0  0
  1  2  1  0
  2  3  1  0
  2  4  1  0
  4  5  1  0
  5  6  1  0
  6  7  1  0
  7  8  1  0
  8  9  1  0
  9 10  1  0
 10 11  2  0
 10 12  2  0
 10  5  1  0
  1 13  1  0
  1 14  1  0
  1 15  1  0
  2 16  1  1
  3 17  1  0
  4 18  1  0
  4 19  1  0
  6 20  1  0
  6 21  1  0
  7 22  1  0
  7 23  1  0
  8 24  1  0
  8 25  1  0
  9 26  1  0
M  END
$$$$

     RDKit          3D

 26 26  0  0  0  0  0  0  0  0999 V2000
   -2.8437    1.1911    0.2309 C   0  0  0  0  0  0  0  0  0  0  0  0
   -2.4224   -0.2020   -0.1097 C   0  0  1  0  0  0  0  0  0  0  0  0
   -3.3219   -0.7540   -1.0189 O   0  0  0  0  0  0  0  0  0  0  0  0
   -1.0532   -0.2773   -0.7286 C   0  0  0  0  0  0  0  0  0  0  0  0
   -0.0140    0.2591    0.0992 N   0  0  0  0  0  0  0  0  0  0  0  0
    1.0604    0.8750   -0.6067 C   0  0  0  0  0  0  0  0  0  0  0  0
    2.3049    0.0368   -0.6879 C   0  0  0  0  0  0  0  0  0  0  0  0
    2.9795   -0.1475    0.6405 C   0  0  0  0  0  0  0  0  0  0  0  0
    2.1647   -0.7721    1.6319 N   0  0  0  0  0  0  0  0  0  0  0  0
    0.5773   -1.0398    1.0741 S   0  0  0  0  0  6  0  0  0  0  0  0
    0.5073   -2.2863    0.2157 O   0  0  0  0  0  0  0  0  0  0  0  0
   -0.3449   -1.2811    2.2475 O   0  0  0  0  0  0  0  0  0  0  0  0
   -2.1930    1.6748    0.9655 H   0  0  0  0  0  0  0  0  0  0  0  0
   -3.8569    1.1362    0.6845 H   0  0  0  0  0  0  0  0  0  0  0  0
   -2.9732    1.8006   -0.6994 H   0  0  0  0  0  0  0  0  0  0  0  0
   -2.4470   -0.8368    0.7988 H   0  0  0  0  0  0  0  0  0  0  0  0
   -2.9706   -0.5486   -1.9406 H   0  0  0  0  0  0  0  0  0  0  0  0
   -0.8179   -1.3412   -0.9353 H   0  0  0  0  0  0  0  0  0  0  0  0
   -1.0007    0.2397   -1.7079 H   0  0  0  0  0  0  0  0  0  0  0  0
    1.3424    1.8048   -0.0332 H   0  0  0  0  0  0  0  0  0  0  0  0
    0.7583    1.1175   -1.6432 H   0  0  0  0  0  0  0  0  0  0  0  0
    3.0226    0.5875   -1.3425 H   0  0  0  0  0  0  0  0  0  0  0  0
    2.1237   -0.9322   -1.1927 H   0  0  0  0  0  0  0  0  0  0  0  0
    3.8846   -0.7700    0.4639 H   0  0  0  0  0  0  0  0  0  0  0  0
    3.3066    0.8415    1.0189 H   0  0  0  0  0  0  0  0  0  0  0  0
    2.2272   -0.3757    2.5752 H   0  0  0  0  0  0  0  0  0  0  0  0
  1  2  1  0
  2  3  1  0
  2  4  1  0
  4  5  1  0
  5  6  1  0
  6  7  1  0
  7  8  1  0
  8  9  1  0
  9 10  1  0
 10 11  2  0
 10 12  2  0
 10  5  1  0
  1 13  1  0
  1 14  1  0
  1 15  1  0
  2 16  1  1
  3 17  1  0
  4 18  1  0
  4 19  1  0
  6 20  1  0
  6 21  1  0
  7 22  1  0
  7 23  1  0
  8 24  1  0
  8 25  1  0
  9 26  1  0
M  END
$$$$

     RDKit          3D

 26 26  0  0  0  0  0  0  0  0999 V2000
   -3.4141    0.4650    0.6075 C   0  0  0  0  0  0  0  0  0  0  0  0
   -2.2024   -0.3927    0.4316 C   0  0  1  0  0  0  0  0  0  0  0  0
   -2.3957   -1.2958   -0.6362 O   0  0  0  0  0  0  0  0  0  0  0  0
   -0.9669    0.4244    0.0387 C   0  0  0  0  0  0  0  0  0  0  0  0
    0.1150   -0.4889   -0.1089 N   0  0  0  0  0  0  0  0  0  0  0  0
    0.9220   -0.3158   -1.2631 C   0  0  0  0  0  0  0  0  0  0  0  0
    2.0624    0.6216   -1.1273 C   0  0  0  0  0  0  0  0  0  0  0  0
    2.8684    0.4925    0.1066 C   0  0  0  0  0  0  0  0  0  0  0  0
    2.6876   -0.7603    0.8121 N   0  0  0  0  0  0  0  0  0  0  0  0
    1.0126   -0.7632    1.3200 S   0  0  0  0  0  6  0  0  0  0  0  0
    0.8844    0.4166    2.2710 O   0  0  0  0  0  0  0  0  0  0  0  0
    0.6461   -2.0290    1.9990 O   0  0  0  0  0  0  0  0  0  0  0  0
   -3.6177    0.6035    1.7000 H   0  0  0  0  0  0  0  0  0  0  0  0
   -3.2645    1.4311    0.1038 H   0  0  0  0  0  0  0  0  0  0  0  0
   -4.2807   -0.0931    0.1449 H   0  0  0  0  0  0  0  0  0  0  0  0
   -1.9637   -1.0007    1.3385 H   0  0  0  0  0  0  0  0  0  0  0  0
   -2.4585   -0.7243   -1.4595 H   0  0  0  0  0  0  0  0  0  0  0  0
   -0.7815    1.2404    0.7651 H   0  0  0  0  0  0  0  0  0  0  0  0
   -1.1834    0.8974   -0.9261 H   0  0  0  0  0  0  0  0  0  0  0  0
    1.2569   -1.3151   -1.6583 H   0  0  0  0  0  0  0  0  0  0  0  0
    0.2543    0.0827   -2.0835 H   0  0  0  0  0  0  0  0  0  0  0  0
    2.7513    0.4435   -2.0046 H   0  0  0  0  0  0  0  0  0  0  0  0
    1.7112    1.6873   -1.2526 H   0  0  0  0  0  0  0  0  0  0  0  0
    3.9602    0.6289   -0.0938 H   0  0  0  0  0  0  0  0  0  0  0  0
    2.5711    1.3010    0.8265 H   0  0  0  0  0  0  0  0  0  0  0  0
    2.8255   -1.5569    0.1485 H   0  0  0  0  0  0  0  0  0  0  0  0
  1  2  1  0
  2  3  1  0
  2  4  1  0
  4  5  1  0
  5  6  1  0
  6  7  1  0
  7  8  1  0
  8  9  1  0
  9 10  1  0
 10 11  2  0
 10 12  2  0
 10  5  1  0
  1 13  1  0
  1 14  1  0
  1 15  1  0
  2 16  1  1
  3 17  1  0
  4 18  1  0
  4 19  1  0
  6 20  1  0
  6 21  1  0
  7 22  1  0
  7 23  1  0
  8 24  1  0
  8 25  1  0
  9 26  1  0
M  END
$$$$

     RDKit          3D

 26 26  0  0  0  0  0  0  0  0999 V2000
    3.5252    0.0669   -0.1016 C   0  0  0  0  0  0  0  0  0  0  0  0
    2.2091   -0.3164   -0.7174 C   0  0  1  0  0  0  0  0  0  0  0  0
    2.0190   -1.6747   -0.6787 O   0  0  0  0  0  0  0  0  0  0  0  0
    1.0815    0.3924   -0.0398 C   0  0  0  0  0  0  0  0  0  0  0  0
   -0.1808    0.0924   -0.6904 N   0  0  0  0  0  0  0  0  0  0  0  0
   -1.0361    1.2353   -0.5555 C   0  0  0  0  0  0  0  0  0  0  0  0
   -2.4675    0.9746   -0.9207 C   0  0  0  0  0  0  0  0  0  0  0  0
   -3.0979   -0.1654   -0.2161 C   0  0  0  0  0  0  0  0  0  0  0  0
   -2.3153   -0.7417    0.8378 N   0  0  0  0  0  0  0  0  0  0  0  0
   -0.8456   -1.3097    0.0794 S   0  0  0  0  0  6  0  0  0  0  0  0
    0.0850   -1.8860    1.0984 O   0  0  0  0  0  0  0  0  0  0  0  0
   -1.2566   -2.3392   -0.9326 O   0  0  0  0  0  0  0  0  0  0  0  0
    3.6757    1.1648   -0.1470 H   0  0  0  0  0  0  0  0  0  0  0  0
    4.3782   -0.4143   -0.5844 H   0  0  0  0  0  0  0  0  0  0  0  0
    3.4798   -0.1871    0.9957 H   0  0  0  0  0  0  0  0  0  0  0  0
    2.2249    0.0077   -1.7771 H   0  0  0  0  0  0  0  0  0  0  0  0
    2.8381   -2.1904   -0.4808 H   0  0  0  0  0  0  0  0  0  0  0  0
    1.0539    0.1759    1.0545 H   0  0  0  0  0  0  0  0  0  0  0  0
    1.3102    1.4965   -0.1007 H   0  0  0  0  0  0  0  0  0  0  0  0
   -0.6585    2.0034   -1.2934 H   0  0  0  0  0  0  0  0  0  0  0  0
   -0.9745    1.7304    0.4356 H   0  0  0  0  0  0  0  0  0  0  0  0
   -2.5635    0.8645   -2.0379 H   0  0  0  0  0  0  0  0  0  0  0  0
   -3.0401    1.8981   -0.6796 H   0  0  0  0  0  0  0  0  0  0  0  0
   -3.2922   -0.9816   -0.9646 H   0  0  0  0  0  0  0  0  0  0  0  0
   -4.1195    0.0915    0.1853 H   0  0  0  0  0  0  0  0  0  0  0  0
   -2.0324    0.0121    1.5277 H   0  0  0  0  0  0  0  0  0  0  0  0
  1  2  1  0
  2  3  1  0
  2  4  1  0
  4  5  1  0
  5  6  1  0
  6  7  1  0
  7  8  1  0
  8  9  1  0
  9 10  1  0
 10 11  2  0
 10 12  2  0
 10  5  1  0
  1 13  1  0
  1 14  1  0
  1 15  1  0
  2 16  1  6
  3 17  1  0
  4 18  1  0
  4 19  1  0
  6 20  1  0
  6 21  1  0
  7 22  1  0
  7 23  1  0
  8 24  1  0
  8 25  1  0
  9 26  1  0
M  END
$$$$
