
     RDKit          3D

 29 30  0  0  0  0  0  0  0  0999 V2000
    1.3163    0.3069    1.7822 O   0  0  0  0  0  0  0  0  0  0  0  0
    1.4673   -0.1384    0.6203 C   0  0  0  0  0  0  0  0  0  0  0  0
    0.2792   -0.3940   -0.1198 N   0  0  0  0  0  0  0  0  0  0  0  0
   -1.0488   -0.1876    0.3464 C   0  0  2  0  0  0  0  0  0  0  0  0
   -1.9379   -1.3955    0.2703 C   0  0  0  0  0  0  0  0  0  0  0  0
   -3.2977   -1.0948    0.7946 C   0  0  0  0  0  0  0  0  0  0  0  0
   -3.7820    0.2959    0.5985 C   0  0  0  0  0  0  0  0  0  0  0  0
   -3.0965    0.9213   -0.5164 N   0  0  0  0  0  0  0  0  0  0  0  0
   -1.6765    0.8650   -0.4996 C   0  0  0  0  0  0  0  0  0  0  0  0
   -1.0298    1.6933   -1.1886 O   0  0  0  0  0  0  0  0  0  0  0  0
    2.8087   -0.3951    0.0227 C   0  0  1  0  0  0  0  0  0  0  0  0
    3.1619    0.7125   -0.9323 C   0  0  0  0  0  0  0  0  0  0  0  0
    4.4252    0.8156   -0.0788 C   0  0  0  0  0  0  0  0  0  0  0  0
    3.8874   -0.0847    0.9011 N   0  0  0  0  0  0  0  0  0  0  0  0
    0.4166   -0.7647   -1.0862 H   0  0  0  0  0  0  0  0  0  0  0  0
   -1.0783    0.2109    1.3927 H   0  0  0  0  0  0  0  0  0  0  0  0
   -1.9957   -1.7060   -0.8042 H   0  0  0  0  0  0  0  0  0  0  0  0
   -1.5546   -2.2651    0.8196 H   0  0  0  0  0  0  0  0  0  0  0  0
   -3.3879   -1.3257    1.8971 H   0  0  0  0  0  0  0  0  0  0  0  0
   -4.0216   -1.8167    0.3172 H   0  0  0  0  0  0  0  0  0  0  0  0
   -3.5927    0.9105    1.5115 H   0  0  0  0  0  0  0  0  0  0  0  0
   -4.8744    0.2725    0.3605 H   0  0  0  0  0  0  0  0  0  0  0  0
   -3.5814    1.3968   -1.3077 H   0  0  0  0  0  0  0  0  0  0  0  0
    2.8692   -1.4149   -0.3653 H   0  0  0  0  0  0  0  0  0  0  0  0
    2.5070    1.6055   -0.8561 H   0  0  0  0  0  0  0  0  0  0  0  0
    3.3230    0.3654   -1.9563 H   0  0  0  0  0  0  0  0  0  0  0  0
    4.5508    1.8593    0.2663 H   0  0  0  0  0  0  0  0  0  0  0  0
    5.2819    0.4486   -0.6655 H   0  0  0  0  0  0  0  0  0  0  0  0
    3.6610    0.3032    1.8268 H   0  0  0  0  0  0  0  0  0  0  0  0
  1  2  2  0
  2  3  1  0
  3  4  1  0
  4  5  1  0
  5  6  1  0
  6  7  1  0
  7  8  1  0
  8  9  1  0
  9 10  2  0
  2 11  1  0
 11 12  1  0
 12 13  1  0
 13 14  1  0
  9  4  1  0
 14 11  1  0
  3 15  1  0
  4 16  1  1
  5 17  1  0
  5 18  1  0
  6 19  1  0
  6 20  1  0
  7 21  1  0
  7 22  1  0
  8 23  1  0
 11 24  1  6
 12 25  1  0
 12 26  1  0
 13 27  1  0
 13 28  1  0
 14 29  1  0
M  END
$$$$

     RDKit          3D

 29 30  0  0  0  0  0  0  0  0999 V2000
    0.8303   -0.5532   -1.6214 O   0  0  0  0  0  0  0  0  0  0  0  0
    1.2943    0.1886   -0.6944 C   0  0  0  0  0  0  0  0  0  0  0  0
    0.3594    0.7645    0.1782 N   0  0  0  0  0  0  0  0  0  0  0  0
   -1.0465    0.5994    0.1202 C   0  0  2  0  0  0  0  0  0  0  0  0
   -1.5208   -0.8027    0.3791 C   0  0  0  0  0  0  0  0  0  0  0  0
   -3.0187   -0.7417    0.6428 C   0  0  0  0  0  0  0  0  0  0  0  0
   -3.6688    0.4796    0.0896 C   0  0  0  0  0  0  0  0  0  0  0  0
   -3.0816    0.8979   -1.1831 N   0  0  0  0  0  0  0  0  0  0  0  0
   -1.6535    0.9750   -1.1970 C   0  0  0  0  0  0  0  0  0  0  0  0
   -1.0012    1.3175   -2.2011 O   0  0  0  0  0  0  0  0  0  0  0  0
    2.7424    0.4322   -0.5350 C   0  0  1  0  0  0  0  0  0  0  0  0
    3.3526    0.1482    0.7965 C   0  0  0  0  0  0  0  0  0  0  0  0
    3.7906   -1.1670    0.2066 C   0  0  0  0  0  0  0  0  0  0  0  0
    3.5242   -0.6323   -1.1224 N   0  0  0  0  0  0  0  0  0  0  0  0
    0.7724    1.3711    0.9529 H   0  0  0  0  0  0  0  0  0  0  0  0
   -1.5405    1.2770    0.8513 H   0  0  0  0  0  0  0  0  0  0  0  0
   -1.3731   -1.4352   -0.5492 H   0  0  0  0  0  0  0  0  0  0  0  0
   -0.9846   -1.2681    1.2262 H   0  0  0  0  0  0  0  0  0  0  0  0
   -3.5127   -1.6941    0.3002 H   0  0  0  0  0  0  0  0  0  0  0  0
   -3.1369   -0.7514    1.7561 H   0  0  0  0  0  0  0  0  0  0  0  0
   -4.7572    0.3198   -0.0143 H   0  0  0  0  0  0  0  0  0  0  0  0
   -3.5588    1.3297    0.7867 H   0  0  0  0  0  0  0  0  0  0  0  0
   -3.6353    1.1272   -2.0292 H   0  0  0  0  0  0  0  0  0  0  0  0
    3.0676    1.4579   -0.8836 H   0  0  0  0  0  0  0  0  0  0  0  0
    2.6322    0.0789    1.6513 H   0  0  0  0  0  0  0  0  0  0  0  0
    4.1824    0.8325    1.0794 H   0  0  0  0  0  0  0  0  0  0  0  0
    3.1281   -1.9748    0.5539 H   0  0  0  0  0  0  0  0  0  0  0  0
    4.8741   -1.3105    0.4376 H   0  0  0  0  0  0  0  0  0  0  0  0
    2.9396   -1.2658   -1.7209 H   0  0  0  0  0  0  0  0  0  0  0  0
  1  2  2  0
  2  3  1  0
  3  4  1  0
  4  5  1  0
  5  6  1  0
  6  7  1  0
  7  8  1  0
  8  9  1  0
  9 10  2  0
  2 11  1  0
 11 12  1  0
 12 13  1  0
 13 14  1  0
  9  4  1  0
 14 11  1  0
  3 15  1  0
  4 16  1  1
  5 17  1  0
  5 18  1  0
  6 19  1  0
  6 20  1  0
  7 21  1  0
  7 22  1  0
  8 23  1  0
 11 24  1  6
 12 25  1  0
 12 26  1  0
 13 27  1  0
 13 28  1  0
 14 29  1  0
M  END
$$$$

     RDKit          3D

 29 30  0  0  0  0  0  0  0  0999 V2000
    0.7029   -1.2436   -1.2050 O   0  0  0  0  0  0  0  0  0  0  0  0
    1.1749   -0.8432   -0.1317 C   0  0  0  0  0  0  0  0  0  0  0  0
    0.3272   -0.2871    0.8368 N   0  0  0  0  0  0  0  0  0  0  0  0
   -1.0296   -0.0799    0.5663 C   0  0  2  0  0  0  0  0  0  0  0  0
   -2.0689   -1.0555    0.7654 C   0  0  0  0  0  0  0  0  0  0  0  0
   -3.4378   -0.3949    0.6562 C   0  0  0  0  0  0  0  0  0  0  0  0
   -3.3940    0.9754    0.0258 C   0  0  0  0  0  0  0  0  0  0  0  0
   -2.5081    0.9218   -1.1510 N   0  0  0  0  0  0  0  0  0  0  0  0
   -1.1941    0.5176   -0.8158 C   0  0  0  0  0  0  0  0  0  0  0  0
   -0.2738    0.6907   -1.6315 O   0  0  0  0  0  0  0  0  0  0  0  0
    2.6663   -0.9092    0.0577 C   0  0  1  0  0  0  0  0  0  0  0  0
    3.2018    0.1131   -1.1115 C   0  0  0  0  0  0  0  0  0  0  0  0
    4.2325    0.3667   -0.0385 C   0  0  0  0  0  0  0  0  0  0  0  0
    3.1569    0.1776    0.8760 N   0  0  0  0  0  0  0  0  0  0  0  0
    0.7826   -0.0069    1.7804 H   0  0  0  0  0  0  0  0  0  0  0  0
   -1.3012    0.8742    1.1975 H   0  0  0  0  0  0  0  0  0  0  0  0
   -2.0151   -1.8378   -0.0449 H   0  0  0  0  0  0  0  0  0  0  0  0
   -2.0480   -1.6244    1.7285 H   0  0  0  0  0  0  0  0  0  0  0  0
   -3.8716   -0.2635    1.6614 H   0  0  0  0  0  0  0  0  0  0  0  0
   -4.0852   -1.0097   -0.0007 H   0  0  0  0  0  0  0  0  0  0  0  0
   -3.0684    1.7560    0.7371 H   0  0  0  0  0  0  0  0  0  0  0  0
   -4.3927    1.2398   -0.3467 H   0  0  0  0  0  0  0  0  0  0  0  0
   -2.8250    1.1677   -2.1117 H   0  0  0  0  0  0  0  0  0  0  0  0
    3.2170   -1.7694   -0.0094 H   0  0  0  0  0  0  0  0  0  0  0  0
    3.4661   -0.3837   -1.9964 H   0  0  0  0  0  0  0  0  0  0  0  0
    2.4503    0.9579   -1.1269 H   0  0  0  0  0  0  0  0  0  0  0  0
    4.6439    1.4077   -0.0435 H   0  0  0  0  0  0  0  0  0  0  0  0
    4.9939   -0.4229   -0.0476 H   0  0  0  0  0  0  0  0  0  0  0  0
    2.4974    0.9655    0.8955 H   0  0  0  0  0  0  0  0  0  0  0  0
  1  2  2  0
  2  3  1  0
  3  4  1  0
  4  5  1  0
  5  6  1  0
  6  7  1  0
  7  8  1  0
  8  9  1  0
  9 10  2  0
  2 11  1  0
 11 12  1  0
 12 13  1  0
 13 14  1  0
  9  4  1  0
 14 11  1  0
  3 15  1  0
  4 16  1  1
  5 17  1  0
  5 18  1  0
  6 19  1  0
  6 20  1  0
  7 21  1  0
  7 22  1  0
  8 23  1  0
 11 24  1  1
 12 25  1  0
 12 26  1  0
 13 27  1  0
 13 28  1  0
 14 29  1  0
M  END
$$$$

     RDKit          3D

 29 30  0  0  0  0  0  0  0  0999 V2000
    1.6344    1.0744    1.0829 O   0  0  0  0  0  0  0  0  0  0  0  0
    1.5427   -0.0046    0.4503 C   0  0  0  0  0  0  0  0  0  0  0  0
    0.2441   -0.4551    0.0930 N   0  0  0  0  0  0  0  0  0  0  0  0
   -0.9721    0.2516    0.4131 C   0  0  2  0  0  0  0  0  0  0  0  0
   -1.9410   -0.5830    1.2143 C   0  0  0  0  0  0  0  0  0  0  0  0
   -3.2495    0.1810    1.2138 C   0  0  0  0  0  0  0  0  0  0  0  0
   -3.9312    0.1344   -0.1201 C   0  0  0  0  0  0  0  0  0  0  0  0
   -2.9409    0.1918   -1.1607 N   0  0  0  0  0  0  0  0  0  0  0  0
   -1.6297    0.6085   -0.8664 C   0  0  0  0  0  0  0  0  0  0  0  0
   -0.9555    1.3076   -1.6859 O   0  0  0  0  0  0  0  0  0  0  0  0
    2.7773   -0.7625    0.1018 C   0  0  1  0  0  0  0  0  0  0  0  0
    3.1598   -0.4324   -1.3375 C   0  0  0  0  0  0  0  0  0  0  0  0
    4.1463    0.5414   -0.6955 C   0  0  0  0  0  0  0  0  0  0  0  0
    4.0044   -0.1906    0.5242 N   0  0  0  0  0  0  0  0  0  0  0  0
    0.2062   -1.3560   -0.4324 H   0  0  0  0  0  0  0  0  0  0  0  0
   -0.8066    1.1840    0.9663 H   0  0  0  0  0  0  0  0  0  0  0  0
   -2.1282   -1.5723    0.8050 H   0  0  0  0  0  0  0  0  0  0  0  0
   -1.6037   -0.6506    2.2867 H   0  0  0  0  0  0  0  0  0  0  0  0
   -3.9222   -0.1486    2.0309 H   0  0  0  0  0  0  0  0  0  0  0  0
   -3.0017    1.2602    1.4301 H   0  0  0  0  0  0  0  0  0  0  0  0
   -4.6289    1.0007   -0.2364 H   0  0  0  0  0  0  0  0  0  0  0  0
   -4.5325   -0.8018   -0.1768 H   0  0  0  0  0  0  0  0  0  0  0  0
   -3.1919   -0.0776   -2.1558 H   0  0  0  0  0  0  0  0  0  0  0  0
    2.7368   -1.8399    0.3029 H   0  0  0  0  0  0  0  0  0  0  0  0
    3.6328   -1.2815   -1.8604 H   0  0  0  0  0  0  0  0  0  0  0  0
    2.4036    0.1207   -1.9063 H   0  0  0  0  0  0  0  0  0  0  0  0
    3.7650    1.5686   -0.6114 H   0  0  0  0  0  0  0  0  0  0  0  0
    5.1302    0.4163   -1.1939 H   0  0  0  0  0  0  0  0  0  0  0  0
    4.0519    0.3154    1.4105 H   0  0  0  0  0  0  0  0  0  0  0  0
  1  2  2  0
  2  3  1  0
  3  4  1  0
  4  5  1  0
  5  6  1  0
  6  7  1  0
  7  8  1  0
  8  9  1  0
  9 10  2  0
  2 11  1  0
 11 12  1  0
 12 13  1  0
 13 14  1  0
  9  4  1  0
 14 11  1  0
  3 15  1  0
  4 16  1  1
  5 17  1  0
  5 18  1  0
  6 19  1  0
  6 20  1  0
  7 21  1  0
  7 22  1  0
  8 23  1  0
 11 24  1  6
 12 25  1  0
 12 26  1  0
 13 27  1  0
 13 28  1  0
 14 29  1  0
M  END
$$$$

     RDKit          3D

 29 30  0  0  0  0  0  0  0  0999 V2000
    1.1209   -0.6285    1.4686 O   0  0  0  0  0  0  0  0  0  0  0  0
    1.3418   -0.4232    0.2470 C   0  0  0  0  0  0  0  0  0  0  0  0
    0.2521   -0.0797   -0.5968 N   0  0  0  0  0  0  0  0  0  0  0  0
   -1.0466    0.0185   -0.0260 C   0  0  2  0  0  0  0  0  0  0  0  0
   -1.9495   -1.0003   -0.7354 C   0  0  0  0  0  0  0  0  0  0  0  0
   -3.2121   -1.0802    0.1143 C   0  0  0  0  0  0  0  0  0  0  0  0
   -3.9347    0.2235    0.1411 C   0  0  0  0  0  0  0  0  0  0  0  0
   -3.1155    1.3517   -0.2340 N   0  0  0  0  0  0  0  0  0  0  0  0
   -1.6925    1.3328   -0.2269 C   0  0  0  0  0  0  0  0  0  0  0  0
   -1.0931    2.4099   -0.3881 O   0  0  0  0  0  0  0  0  0  0  0  0
    2.7400   -0.5469   -0.2763 C   0  0  1  0  0  0  0  0  0  0  0  0
    3.3548    0.8225   -0.4367 C   0  0  0  0  0  0  0  0  0  0  0  0
    4.5230    0.2019    0.3208 C   0  0  0  0  0  0  0  0  0  0  0  0
    3.6756   -0.9036    0.7612 N   0  0  0  0  0  0  0  0  0  0  0  0
    0.4615    0.0857   -1.6070 H   0  0  0  0  0  0  0  0  0  0  0  0
   -1.0431   -0.1935    1.0446 H   0  0  0  0  0  0  0  0  0  0  0  0
   -1.4555   -1.9768   -0.7209 H   0  0  0  0  0  0  0  0  0  0  0  0
   -2.1884   -0.6145   -1.7331 H   0  0  0  0  0  0  0  0  0  0  0  0
   -3.8485   -1.8625   -0.3367 H   0  0  0  0  0  0  0  0  0  0  0  0
   -2.8789   -1.4077    1.1226 H   0  0  0  0  0  0  0  0  0  0  0  0
   -4.3105    0.3676    1.1953 H   0  0  0  0  0  0  0  0  0  0  0  0
   -4.8166    0.1638   -0.5272 H   0  0  0  0  0  0  0  0  0  0  0  0
   -3.6293    2.2225   -0.5241 H   0  0  0  0  0  0  0  0  0  0  0  0
    2.8270   -1.1502   -1.1904 H   0  0  0  0  0  0  0  0  0  0  0  0
    2.8453    1.6467    0.0872 H   0  0  0  0  0  0  0  0  0  0  0  0
    3.5820    1.0548   -1.4930 H   0  0  0  0  0  0  0  0  0  0  0  0
    5.3234   -0.1568   -0.3640 H   0  0  0  0  0  0  0  0  0  0  0  0
    4.8496    0.8742    1.1308 H   0  0  0  0  0  0  0  0  0  0  0  0
    3.3180   -0.7514    1.7501 H   0  0  0  0  0  0  0  0  0  0  0  0
  1  2  2  0
  2  3  1  0
  3  4  1  0
  4  5  1  0
  5  6  1  0
  6  7  1  0
  7  8  1  0
  8  9  1  0
  9 10  2  0
  2 11  1  0
 11 12  1  0
 12 13  1  0
 13 14  1  0
  9  4  1  0
 14 11  1  0
  3 15  1  0
  4 16  1  1
  5 17  1  0
  5 18  1  0
  6 19  1  0
  6 20  1  0
  7 21  1  0
  7 22  1  0
  8 23  1  0
 11 24  1  6
 12 25  1  0
 12 26  1  0
 13 27  1  0
 13 28  1  0
 14 29  1  0
M  END
$$$$

     RDKit          3D

 29 30  0  0  0  0  0  0  0  0999 V2000
    0.5963    0.1490    2.1449 O   0  0  0  0  0  0  0  0  0  0  0  0
    1.1638    0.0560    1.0820 C   0  0  0  0  0  0  0  0  0  0  0  0
    0.4388   -0.1985   -0.1198 N   0  0  0  0  0  0  0  0  0  0  0  0
   -0.9548   -0.4868   -0.2509 C   0  0  2  0  0  0  0  0  0  0  0  0
   -1.7038    0.5273   -0.9857 C   0  0  0  0  0  0  0  0  0  0  0  0
   -2.7631    1.2251   -0.1541 C   0  0  0  0  0  0  0  0  0  0  0  0
   -3.6878    0.2182    0.4731 C   0  0  0  0  0  0  0  0  0  0  0  0
   -2.9525   -0.8284    1.1340 N   0  0  0  0  0  0  0  0  0  0  0  0
   -1.5707   -1.0592    0.9682 C   0  0  0  0  0  0  0  0  0  0  0  0
   -0.9990   -1.7059    1.7622 O   0  0  0  0  0  0  0  0  0  0  0  0
    2.6320    0.1418    0.9241 C   0  0  1  0  0  0  0  0  0  0  0  0
    3.1862   -0.9784    0.0857 C   0  0  0  0  0  0  0  0  0  0  0  0
    3.9243    0.0801   -0.6776 C   0  0  0  0  0  0  0  0  0  0  0  0
    3.2436    1.1254    0.1282 N   0  0  0  0  0  0  0  0  0  0  0  0
    0.9613   -0.0542   -1.0271 H   0  0  0  0  0  0  0  0  0  0  0  0
   -0.9326   -1.4464   -0.9221 H   0  0  0  0  0  0  0  0  0  0  0  0
   -2.2405    0.1424   -1.8830 H   0  0  0  0  0  0  0  0  0  0  0  0
   -1.0493    1.3678   -1.3882 H   0  0  0  0  0  0  0  0  0  0  0  0
   -2.3295    1.8958    0.6118 H   0  0  0  0  0  0  0  0  0  0  0  0
   -3.3783    1.8088   -0.8692 H   0  0  0  0  0  0  0  0  0  0  0  0
   -4.3381   -0.2184   -0.3252 H   0  0  0  0  0  0  0  0  0  0  0  0
   -4.3419    0.7384    1.2157 H   0  0  0  0  0  0  0  0  0  0  0  0
   -3.5356   -1.4757    1.7548 H   0  0  0  0  0  0  0  0  0  0  0  0
    3.1123    0.1692    1.9644 H   0  0  0  0  0  0  0  0  0  0  0  0
    2.4292   -1.5006   -0.5407 H   0  0  0  0  0  0  0  0  0  0  0  0
    3.8305   -1.6715    0.6338 H   0  0  0  0  0  0  0  0  0  0  0  0
    3.6260    0.1567   -1.7287 H   0  0  0  0  0  0  0  0  0  0  0  0
    5.0177    0.1192   -0.4765 H   0  0  0  0  0  0  0  0  0  0  0  0
    2.6155    1.7026   -0.4876 H   0  0  0  0  0  0  0  0  0  0  0  0
  1  2  2  0
  2  3  1  0
  3  4  1  0
  4  5  1  0
  5  6  1  0
  6  7  1  0
  7  8  1  0
  8  9  1  0
  9 10  2  0
  2 11  1  0
 11 12  1  0
 12 13  1  0
 13 14  1  0
  9  4  1  0
 14 11  1  0
  3 15  1  0
  4 16  1  6
  5 17  1  0
  5 18  1  0
  6 19  1  0
  6 20  1  0
  7 21  1  0
  7 22  1  0
  8 23  1  0
 11 24  1  1
 12 25  1  0
 12 26  1  0
 13 27  1  0
 13 28  1  0
 14 29  1  0
M  END
$$$$

     RDKit          3D

 29 30  0  0  0  0  0  0  0  0999 V2000
    0.7046    1.8563   -0.9543 O   0  0  0  0  0  0  0  0  0  0  0  0
    1.1864    0.8694   -0.3385 C   0  0  0  0  0  0  0  0  0  0  0  0
    0.3055   -0.0787    0.1993 N   0  0  0  0  0  0  0  0  0  0  0  0
   -1.1536    0.0260    0.0775 C   0  0  2  0  0  0  0  0  0  0  0  0
   -1.7188    0.0888    1.4615 C   0  0  0  0  0  0  0  0  0  0  0  0
   -3.2017    0.0953    1.5194 C   0  0  0  0  0  0  0  0  0  0  0  0
   -3.8835   -0.5941    0.3849 C   0  0  0  0  0  0  0  0  0  0  0  0
   -3.0171   -1.6111   -0.2029 N   0  0  0  0  0  0  0  0  0  0  0  0
   -1.7153   -1.1754   -0.5917 C   0  0  0  0  0  0  0  0  0  0  0  0
   -1.0942   -1.8217   -1.4827 O   0  0  0  0  0  0  0  0  0  0  0  0
    2.6317    0.7065   -0.1821 C   0  0  1  0  0  0  0  0  0  0  0  0
    3.2912   -0.2948   -1.1119 C   0  0  0  0  0  0  0  0  0  0  0  0
    4.4624    0.6560   -0.9597 C   0  0  0  0  0  0  0  0  0  0  0  0
    3.4725    1.7141   -0.7574 N   0  0  0  0  0  0  0  0  0  0  0  0
    0.7121   -0.8948    0.7088 H   0  0  0  0  0  0  0  0  0  0  0  0
   -1.3821    0.9418   -0.4852 H   0  0  0  0  0  0  0  0  0  0  0  0
   -1.3380   -0.8213    2.0085 H   0  0  0  0  0  0  0  0  0  0  0  0
   -1.3010    0.9527    2.0111 H   0  0  0  0  0  0  0  0  0  0  0  0
   -3.5817    1.1442    1.6724 H   0  0  0  0  0  0  0  0  0  0  0  0
   -3.5151   -0.4409    2.4626 H   0  0  0  0  0  0  0  0  0  0  0  0
   -4.8637   -1.0581    0.6775 H   0  0  0  0  0  0  0  0  0  0  0  0
   -4.1236    0.1818   -0.3826 H   0  0  0  0  0  0  0  0  0  0  0  0
   -3.3343   -2.6027   -0.3309 H   0  0  0  0  0  0  0  0  0  0  0  0
    2.9810    0.4874    0.8657 H   0  0  0  0  0  0  0  0  0  0  0  0
    2.8651   -0.2616   -2.1265 H   0  0  0  0  0  0  0  0  0  0  0  0
    3.4547   -1.3005   -0.6778 H   0  0  0  0  0  0  0  0  0  0  0  0
    4.9738    0.4647   -0.0016 H   0  0  0  0  0  0  0  0  0  0  0  0
    5.0922    0.7709   -1.8491 H   0  0  0  0  0  0  0  0  0  0  0  0
    3.0905    1.9997   -1.6988 H   0  0  0  0  0  0  0  0  0  0  0  0
  1  2  2  0
  2  3  1  0
  3  4  1  0
  4  5  1  0
  5  6  1  0
  6  7  1  0
  7  8  1  0
  8  9  1  0
  9 10  2  0
  2 11  1  0
 11 12  1  0
 12 13  1  0
 13 14  1  0
  9  4  1  0
 14 11  1  0
  3 15  1  0
  4 16  1  6
  5 17  1  0
  5 18  1  0
  6 19  1  0
  6 20  1  0
  7 21  1  0
  7 22  1  0
  8 23  1  0
 11 24  1  1
 12 25  1  0
 12 26  1  0
 13 27  1  0
 13 28  1  0
 14 29  1  0
M  END
$$$$

     RDKit          3D

 29 30  0  0  0  0  0  0  0  0999 V2000
    1.1900    0.6057   -1.4716 O   0  0  0  0  0  0  0  0  0  0  0  0
    1.3577    0.3300   -0.2577 C   0  0  0  0  0  0  0  0  0  0  0  0
    0.2056    0.0480    0.5171 N   0  0  0  0  0  0  0  0  0  0  0  0
   -1.0937    0.0787   -0.0697 C   0  0  2  0  0  0  0  0  0  0  0  0
   -2.0201    1.0780    0.6085 C   0  0  0  0  0  0  0  0  0  0  0  0
   -3.1855    1.2570   -0.3648 C   0  0  0  0  0  0  0  0  0  0  0  0
   -3.9954   -0.0109   -0.3539 C   0  0  0  0  0  0  0  0  0  0  0  0
   -3.2054   -1.1945   -0.2525 N   0  0  0  0  0  0  0  0  0  0  0  0
   -1.8065   -1.2296    0.0057 C   0  0  0  0  0  0  0  0  0  0  0  0
   -1.2033   -2.2994    0.2817 O   0  0  0  0  0  0  0  0  0  0  0  0
    2.7385    0.3228    0.2595 C   0  0  1  0  0  0  0  0  0  0  0  0
    3.3782   -1.0142    0.4300 C   0  0  0  0  0  0  0  0  0  0  0  0
    4.6409   -0.2620    0.0053 C   0  0  0  0  0  0  0  0  0  0  0  0
    3.7565    0.6431   -0.7232 N   0  0  0  0  0  0  0  0  0  0  0  0
    0.3286   -0.1794    1.5128 H   0  0  0  0  0  0  0  0  0  0  0  0
   -1.0513    0.3404   -1.1503 H   0  0  0  0  0  0  0  0  0  0  0  0
   -2.3975    0.6293    1.5471 H   0  0  0  0  0  0  0  0  0  0  0  0
   -1.5168    2.0268    0.8290 H   0  0  0  0  0  0  0  0  0  0  0  0
   -3.7729    2.1464   -0.1403 H   0  0  0  0  0  0  0  0  0  0  0  0
   -2.7311    1.3828   -1.3692 H   0  0  0  0  0  0  0  0  0  0  0  0
   -4.6581   -0.0323   -1.2669 H   0  0  0  0  0  0  0  0  0  0  0  0
   -4.6910    0.0078    0.5149 H   0  0  0  0  0  0  0  0  0  0  0  0
   -3.6870   -2.1121   -0.3770 H   0  0  0  0  0  0  0  0  0  0  0  0
    2.8720    0.9463    1.1627 H   0  0  0  0  0  0  0  0  0  0  0  0
    3.1193   -1.7878   -0.3072 H   0  0  0  0  0  0  0  0  0  0  0  0
    3.4847   -1.3964    1.4556 H   0  0  0  0  0  0  0  0  0  0  0  0
    5.1125    0.3038    0.8327 H   0  0  0  0  0  0  0  0  0  0  0  0
    5.3235   -0.8464   -0.6240 H   0  0  0  0  0  0  0  0  0  0  0  0
    3.5073    0.2182   -1.6424 H   0  0  0  0  0  0  0  0  0  0  0  0
  1  2  2  0
  2  3  1  0
  3  4  1  0
  4  5  1  0
  5  6  1  0
  6  7  1  0
  7  8  1  0
  8  9  1  0
  9 10  2  0
  2 11  1  0
 11 12  1  0
 12 13  1  0
 13 14  1  0
  9  4  1  0
 14 11  1  0
  3 15  1  0
  4 16  1  6
  5 17  1  0
  5 18  1  0
  6 19  1  0
  6 20  1  0
  7 21  1  0
  7 22  1  0
  8 23  1  0
 11 24  1  1
 12 25  1  0
 12 26  1  0
 13 27  1  0
 13 28  1  0
 14 29  1  0
M  END
$$$$
