
     RDKit          3D

 26 26  0  0  0  0  0  0  0  0999 V2000
    3.9683    0.0106   -0.3069 C   0  0  0  0  0  0  0  0  0  0  0  0
    2.6687   -0.6151   -0.0620 N   0  0  0  0  0  0  0  0  0  0  0  0
    1.4996    0.1371    0.1362 C   0  0  0  0  0  0  0  0  0  0  0  0
    1.5673    1.3867    0.1029 O   0  0  0  0  0  0  0  0  0  0  0  0
    0.1843   -0.4770    0.3838 C   0  0  2  0  0  0  0  0  0  0  0  0
   -0.3242   -1.2573   -0.8059 C   0  0  0  0  0  0  0  0  0  0  0  0
   -1.7881   -1.3417   -0.4345 C   0  0  2  0  0  0  0  0  0  0  0  0
   -2.5748   -1.8650   -1.4192 O   0  0  0  0  0  0  0  0  0  0  0  0
   -2.0328    0.1670   -0.2308 C   0  0  0  0  0  0  0  0  0  0  0  0
   -0.8686    0.4741    0.6230 N   0  0  0  0  0  0  0  0  0  0  0  0
   -0.8782    1.5669    1.5260 C   0  0  0  0  0  0  0  0  0  0  0  0
   -1.9927    2.4316    1.6578 N   0  0  0  0  0  0  0  0  0  0  0  0
    0.1219    1.7795    2.2292 O   0  0  0  0  0  0  0  0  0  0  0  0
    4.7261   -0.6872    0.0916 H   0  0  0  0  0  0  0  0  0  0  0  0
    3.9978    0.9614    0.2527 H   0  0  0  0  0  0  0  0  0  0  0  0
    4.1039    0.1652   -1.3850 H   0  0  0  0  0  0  0  0  0  0  0  0
    2.5904   -1.6538   -0.0304 H   0  0  0  0  0  0  0  0  0  0  0  0
    0.2133   -1.2021    1.2361 H   0  0  0  0  0  0  0  0  0  0  0  0
    0.1488   -2.2472   -0.9114 H   0  0  0  0  0  0  0  0  0  0  0  0
   -0.2680   -0.6471   -1.7307 H   0  0  0  0  0  0  0  0  0  0  0  0
   -1.8358   -1.8802    0.5368 H   0  0  0  0  0  0  0  0  0  0  0  0
   -3.5187   -1.7109   -1.1798 H   0  0  0  0  0  0  0  0  0  0  0  0
   -2.9780    0.3686    0.2648 H   0  0  0  0  0  0  0  0  0  0  0  0
   -1.8704    0.6380   -1.1998 H   0  0  0  0  0  0  0  0  0  0  0  0
   -2.9102    2.0384    2.0001 H   0  0  0  0  0  0  0  0  0  0  0  0
   -1.9499    3.4595    1.4281 H   0  0  0  0  0  0  0  0  0  0  0  0
  1  2  1  0
  2  3  1  0
  3  4  2  0
  3  5  1  0
  5  6  1  0
  6  7  1  0
  7  8  1  0
  7  9  1  0
  9 10  1  0
 10 11  1  0
 11 12  1  0
 11 13  2  0
 10  5  1  0
  1 14  1  0
  1 15  1  0
  1 16  1  0
  2 17  1  0
  5 18  1  1
  6 19  1  0
  6 20  1  0
  7 21  1  1
  8 22  1  0
  9 23  1  0
  9 24  1  0
 12 25  1  0
 12 26  1  0
M  END
$$$$

     RDKit          3D

 26 26  0  0  0  0  0  0  0  0999 V2000
    3.1853    1.3542   -1.0780 C   0  0  0  0  0  0  0  0  0  0  0  0
    1.8581    1.0169   -0.5979 N   0  0  0  0  0  0  0  0  0  0  0  0
    1.6373   -0.1653    0.1335 C   0  0  0  0  0  0  0  0  0  0  0  0
    2.6135   -0.9224    0.3601 O   0  0  0  0  0  0  0  0  0  0  0  0
    0.3323   -0.6026    0.6681 C   0  0  2  0  0  0  0  0  0  0  0  0
   -0.0038   -1.9063    0.0290 C   0  0  0  0  0  0  0  0  0  0  0  0
   -1.5022   -1.8658   -0.1217 C   0  0  2  0  0  0  0  0  0  0  0  0
   -1.9739   -2.6365   -1.1586 O   0  0  0  0  0  0  0  0  0  0  0  0
   -1.7153   -0.3826   -0.3567 C   0  0  0  0  0  0  0  0  0  0  0  0
   -0.7400    0.2731    0.4736 N   0  0  0  0  0  0  0  0  0  0  0  0
   -0.9625    1.5954    0.9476 C   0  0  0  0  0  0  0  0  0  0  0  0
   -2.1119    2.3480    0.6486 N   0  0  0  0  0  0  0  0  0  0  0  0
   -0.0805    2.1043    1.6682 O   0  0  0  0  0  0  0  0  0  0  0  0
    3.6661    2.0154   -0.3380 H   0  0  0  0  0  0  0  0  0  0  0  0
    3.7461    0.4091   -1.1957 H   0  0  0  0  0  0  0  0  0  0  0  0
    3.1357    1.9073   -2.0335 H   0  0  0  0  0  0  0  0  0  0  0  0
    1.0370    1.6269   -0.7776 H   0  0  0  0  0  0  0  0  0  0  0  0
    0.4502   -0.8030    1.7886 H   0  0  0  0  0  0  0  0  0  0  0  0
    0.3129   -2.7804    0.6438 H   0  0  0  0  0  0  0  0  0  0  0  0
    0.4707   -1.9774   -0.9838 H   0  0  0  0  0  0  0  0  0  0  0  0
   -1.9445   -2.1134    0.8629 H   0  0  0  0  0  0  0  0  0  0  0  0
   -1.9093   -3.5776   -0.8940 H   0  0  0  0  0  0  0  0  0  0  0  0
   -2.7221   -0.0760   -0.0079 H   0  0  0  0  0  0  0  0  0  0  0  0
   -1.6417   -0.1108   -1.4282 H   0  0  0  0  0  0  0  0  0  0  0  0
   -2.3104    2.7951   -0.2700 H   0  0  0  0  0  0  0  0  0  0  0  0
   -2.8270    2.4742    1.3981 H   0  0  0  0  0  0  0  0  0  0  0  0
  1  2  1  0
  2  3  1  0
  3  4  2  0
  3  5  1  0
  5  6  1  0
  6  7  1  0
  7  8  1  0
  7  9  1  0
  9 10  1  0
 10 11  1  0
 11 12  1  0
 11 13  2  0
 10  5  1  0
  1 14  1  0
  1 15  1  0
  1 16  1  0
  2 17  1  0
  5 18  1  1
  6 19  1  0
  6 20  1  0
  7 21  1  1
  8 22  1  0
  9 23  1  0
  9 24  1  0
 12 25  1  0
 12 26  1  0
M  END
$$$$

     RDKit          3D

 26 26  0  0  0  0  0  0  0  0999 V2000
    3.5729    0.7444    0.2673 C   0  0  0  0  0  0  0  0  0  0  0  0
    2.1073    0.6581    0.2600 N   0  0  0  0  0  0  0  0  0  0  0  0
    1.5091   -0.5654    0.5758 C   0  0  0  0  0  0  0  0  0  0  0  0
    2.2632   -1.5615    0.8553 O   0  0  0  0  0  0  0  0  0  0  0  0
    0.0595   -0.8411    0.6219 C   0  0  2  0  0  0  0  0  0  0  0  0
   -0.3891   -1.7921   -0.4460 C   0  0  0  0  0  0  0  0  0  0  0  0
   -1.8269   -1.3820   -0.6284 C   0  0  2  0  0  0  0  0  0  0  0  0
   -2.4362   -1.9107   -1.7229 O   0  0  0  0  0  0  0  0  0  0  0  0
   -1.6433    0.1320   -0.7064 C   0  0  0  0  0  0  0  0  0  0  0  0
   -0.7589    0.3119    0.4615 N   0  0  0  0  0  0  0  0  0  0  0  0
   -0.7956    1.4924    1.2567 C   0  0  0  0  0  0  0  0  0  0  0  0
   -1.6715    2.5525    0.9549 N   0  0  0  0  0  0  0  0  0  0  0  0
   -0.0148    1.5804    2.2600 O   0  0  0  0  0  0  0  0  0  0  0  0
    3.9862   -0.2632    0.0870 H   0  0  0  0  0  0  0  0  0  0  0  0
    3.9355    1.5018   -0.4431 H   0  0  0  0  0  0  0  0  0  0  0  0
    3.8794    1.0315    1.3011 H   0  0  0  0  0  0  0  0  0  0  0  0
    1.5150    1.4646    0.0255 H   0  0  0  0  0  0  0  0  0  0  0  0
   -0.2036   -1.3064    1.6059 H   0  0  0  0  0  0  0  0  0  0  0  0
    0.1391   -1.6160   -1.4156 H   0  0  0  0  0  0  0  0  0  0  0  0
   -0.3101   -2.8545   -0.1297 H   0  0  0  0  0  0  0  0  0  0  0  0
   -2.3556   -1.5711    0.3388 H   0  0  0  0  0  0  0  0  0  0  0  0
   -2.8596   -2.7826   -1.4468 H   0  0  0  0  0  0  0  0  0  0  0  0
   -2.6017    0.6514   -0.5443 H   0  0  0  0  0  0  0  0  0  0  0  0
   -1.1072    0.4319   -1.6226 H   0  0  0  0  0  0  0  0  0  0  0  0
   -1.3874    3.2793    0.2676 H   0  0  0  0  0  0  0  0  0  0  0  0
   -2.6057    2.6143    1.4170 H   0  0  0  0  0  0  0  0  0  0  0  0
  1  2  1  0
  2  3  1  0
  3  4  2  0
  3  5  1  0
  5  6  1  0
  6  7  1  0
  7  8  1  0
  7  9  1  0
  9 10  1  0
 10 11  1  0
 11 12  1  0
 11 13  2  0
 10  5  1  0
  1 14  1  0
  1 15  1  0
  1 16  1  0
  2 17  1  0
  5 18  1  1
  6 19  1  0
  6 20  1  0
  7 21  1  1
  8 22  1  0
  9 23  1  0
  9 24  1  0
 12 25  1  0
 12 26  1  0
M  END
$$$$

     RDKit          3D

 26 26  0  0  0  0  0  0  0  0999 V2000
    3.4762    0.3233    1.1660 C   0  0  0  0  0  0  0  0  0  0  0  0
    2.2634   -0.3605    0.7152 N   0  0  0  0  0  0  0  0  0  0  0  0
    1.0280    0.3293    0.5742 C   0  0  0  0  0  0  0  0  0  0  0  0
    0.9447    1.5449    0.8330 O   0  0  0  0  0  0  0  0  0  0  0  0
   -0.1419   -0.4213    0.1184 C   0  0  2  0  0  0  0  0  0  0  0  0
    0.1077   -0.8412   -1.3402 C   0  0  0  0  0  0  0  0  0  0  0  0
   -1.3318   -1.0180   -1.7801 C   0  0  2  0  0  0  0  0  0  0  0  0
   -1.4759   -1.2168   -3.1249 O   0  0  0  0  0  0  0  0  0  0  0  0
   -1.8630    0.3498   -1.3286 C   0  0  0  0  0  0  0  0  0  0  0  0
   -1.3360    0.3928    0.0156 N   0  0  0  0  0  0  0  0  0  0  0  0
   -1.8857    1.1164    1.0951 C   0  0  0  0  0  0  0  0  0  0  0  0
   -1.3121    1.1126    2.3948 N   0  0  0  0  0  0  0  0  0  0  0  0
   -2.9150    1.7941    0.9290 O   0  0  0  0  0  0  0  0  0  0  0  0
    3.9112    0.8633    0.2964 H   0  0  0  0  0  0  0  0  0  0  0  0
    4.2073   -0.4214    1.5363 H   0  0  0  0  0  0  0  0  0  0  0  0
    3.2231    1.0375    1.9638 H   0  0  0  0  0  0  0  0  0  0  0  0
    2.3059   -1.3607    0.4959 H   0  0  0  0  0  0  0  0  0  0  0  0
   -0.3161   -1.3387    0.7178 H   0  0  0  0  0  0  0  0  0  0  0  0
    0.5062    0.0386   -1.8809 H   0  0  0  0  0  0  0  0  0  0  0  0
    0.7031   -1.7417   -1.4160 H   0  0  0  0  0  0  0  0  0  0  0  0
   -1.8263   -1.7943   -1.1468 H   0  0  0  0  0  0  0  0  0  0  0  0
   -1.7794   -2.1364   -3.2774 H   0  0  0  0  0  0  0  0  0  0  0  0
   -1.3485    1.0938   -1.9495 H   0  0  0  0  0  0  0  0  0  0  0  0
   -2.9615    0.3915   -1.3747 H   0  0  0  0  0  0  0  0  0  0  0  0
   -1.2450    0.2613    2.9812 H   0  0  0  0  0  0  0  0  0  0  0  0
   -0.9385    2.0016    2.7863 H   0  0  0  0  0  0  0  0  0  0  0  0
  1  2  1  0
  2  3  1  0
  3  4  2  0
  3  5  1  0
  5  6  1  0
  6  7  1  0
  7  8  1  0
  7  9  1  0
  9 10  1  0
 10 11  1  0
 11 12  1  0
 11 13  2  0
 10  5  1  0
  1 14  1  0
  1 15  1  0
  1 16  1  0
  2 17  1  0
  5 18  1  1
  6 19  1  0
  6 20  1  0
  7 21  1  1
  8 22  1  0
  9 23  1  0
  9 24  1  0
 12 25  1  0
 12 26  1  0
M  END
$$$$

     RDKit          3D

 26 26  0  0  0  0  0  0  0  0999 V2000
    3.6910   -0.0760   -0.1393 C   0  0  0  0  0  0  0  0  0  0  0  0
    2.4210    0.1610   -0.7913 N   0  0  0  0  0  0  0  0  0  0  0  0
    1.2324   -0.3387   -0.2095 C   0  0  0  0  0  0  0  0  0  0  0  0
    1.2700   -0.9922    0.8779 O   0  0  0  0  0  0  0  0  0  0  0  0
   -0.0534   -0.0966   -0.8733 C   0  0  2  0  0  0  0  0  0  0  0  0
   -0.3535    1.3818   -0.8385 C   0  0  0  0  0  0  0  0  0  0  0  0
   -1.0668    1.6061    0.4550 C   0  0  2  0  0  0  0  0  0  0  0  0
   -0.2364    2.1393    1.4371 O   0  0  0  0  0  0  0  0  0  0  0  0
   -1.6200    0.2740    0.8589 C   0  0  0  0  0  0  0  0  0  0  0  0
   -1.1334   -0.6927   -0.1107 N   0  0  0  0  0  0  0  0  0  0  0  0
   -1.6204   -1.9919   -0.2890 C   0  0  0  0  0  0  0  0  0  0  0  0
   -2.6913   -2.4499    0.5347 N   0  0  0  0  0  0  0  0  0  0  0  0
   -1.1133   -2.7387   -1.1673 O   0  0  0  0  0  0  0  0  0  0  0  0
    4.2727    0.8477    0.0100 H   0  0  0  0  0  0  0  0  0  0  0  0
    4.3051   -0.7512   -0.7915 H   0  0  0  0  0  0  0  0  0  0  0  0
    3.5317   -0.5596    0.8485 H   0  0  0  0  0  0  0  0  0  0  0  0
    2.4064    0.6976   -1.6808 H   0  0  0  0  0  0  0  0  0  0  0  0
   -0.0735   -0.4141   -1.9324 H   0  0  0  0  0  0  0  0  0  0  0  0
   -0.9924    1.6851   -1.7119 H   0  0  0  0  0  0  0  0  0  0  0  0
    0.5725    1.9954   -0.9210 H   0  0  0  0  0  0  0  0  0  0  0  0
   -1.9105    2.3322    0.2832 H   0  0  0  0  0  0  0  0  0  0  0  0
   -0.6454    2.9412    1.8424 H   0  0  0  0  0  0  0  0  0  0  0  0
   -1.3322   -0.0442    1.8705 H   0  0  0  0  0  0  0  0  0  0  0  0
   -2.7381    0.2967    0.8037 H   0  0  0  0  0  0  0  0  0  0  0  0
   -2.5260   -3.2455    1.1774 H   0  0  0  0  0  0  0  0  0  0  0  0
   -3.5960   -1.9667    0.4572 H   0  0  0  0  0  0  0  0  0  0  0  0
  1  2  1  0
  2  3  1  0
  3  4  2  0
  3  5  1  0
  5  6  1  0
  6  7  1  0
  7  8  1  0
  7  9  1  0
  9 10  1  0
 10 11  1  0
 11 12  1  0
 11 13  2  0
 10  5  1  0
  1 14  1  0
  1 15  1  0
  1 16  1  0
  2 17  1  0
  5 18  1  6
  6 19  1  0
  6 20  1  0
  7 21  1  6
  8 22  1  0
  9 23  1  0
  9 24  1  0
 12 25  1  0
 12 26  1  0
M  END
$$$$

     RDKit          3D

 26 26  0  0  0  0  0  0  0  0999 V2000
    3.5495   -0.5583    0.5002 C   0  0  0  0  0  0  0  0  0  0  0  0
    2.1985   -0.2735    0.9771 N   0  0  0  0  0  0  0  0  0  0  0  0
    1.1703    0.0630    0.0748 C   0  0  0  0  0  0  0  0  0  0  0  0
    1.4762    0.1053   -1.1605 O   0  0  0  0  0  0  0  0  0  0  0  0
   -0.2168    0.3618    0.4975 C   0  0  2  0  0  0  0  0  0  0  0  0
   -0.8915   -0.8507    1.1016 C   0  0  0  0  0  0  0  0  0  0  0  0
   -1.7961   -1.3985    0.0209 C   0  0  2  0  0  0  0  0  0  0  0  0
   -1.5052   -2.7372   -0.2303 O   0  0  0  0  0  0  0  0  0  0  0  0
   -1.5655   -0.5392   -1.2022 C   0  0  0  0  0  0  0  0  0  0  0  0
   -1.0253    0.6684   -0.6543 N   0  0  0  0  0  0  0  0  0  0  0  0
   -1.2499    1.9798   -1.1668 C   0  0  0  0  0  0  0  0  0  0  0  0
   -0.6734    3.1163   -0.5584 N   0  0  0  0  0  0  0  0  0  0  0  0
   -1.9830    2.1519   -2.1947 O   0  0  0  0  0  0  0  0  0  0  0  0
    3.8752    0.3337   -0.0547 H   0  0  0  0  0  0  0  0  0  0  0  0
    3.5305   -1.4396   -0.1475 H   0  0  0  0  0  0  0  0  0  0  0  0
    4.2038   -0.7736    1.3659 H   0  0  0  0  0  0  0  0  0  0  0  0
    1.9533   -0.3096    1.9914 H   0  0  0  0  0  0  0  0  0  0  0  0
   -0.2125    1.1803    1.2458 H   0  0  0  0  0  0  0  0  0  0  0  0
   -0.1023   -1.5957    1.3695 H   0  0  0  0  0  0  0  0  0  0  0  0
   -1.4387   -0.5496    2.0134 H   0  0  0  0  0  0  0  0  0  0  0  0
   -2.8555   -1.2864    0.2984 H   0  0  0  0  0  0  0  0  0  0  0  0
   -2.1913   -3.2749    0.2275 H   0  0  0  0  0  0  0  0  0  0  0  0
   -0.8642   -1.0789   -1.8663 H   0  0  0  0  0  0  0  0  0  0  0  0
   -2.4970   -0.3708   -1.7712 H   0  0  0  0  0  0  0  0  0  0  0  0
    0.3140    3.3528   -0.7697 H   0  0  0  0  0  0  0  0  0  0  0  0
   -1.2032    3.7232    0.0927 H   0  0  0  0  0  0  0  0  0  0  0  0
  1  2  1  0
  2  3  1  0
  3  4  2  0
  3  5  1  0
  5  6  1  0
  6  7  1  0
  7  8  1  0
  7  9  1  0
  9 10  1  0
 10 11  1  0
 11 12  1  0
 11 13  2  0
 10  5  1  0
  1 14  1  0
  1 15  1  0
  1 16  1  0
  2 17  1  0
  5 18  1  1
  6 19  1  0
  6 20  1  0
  7 21  1  1
  8 22  1  0
  9 23  1  0
  9 24  1  0
 12 25  1  0
 12 26  1  0
M  END
$$$$

     RDKit          3D

 26 26  0  0  0  0  0  0  0  0999 V2000
    3.7492   -0.0997    0.7179 C   0  0  0  0  0  0  0  0  0  0  0  0
    2.5949    0.1378   -0.1057 N   0  0  0  0  0  0  0  0  0  0  0  0
    1.3017   -0.3346    0.1677 C   0  0  0  0  0  0  0  0  0  0  0  0
    1.1039   -1.0181    1.1993 O   0  0  0  0  0  0  0  0  0  0  0  0
    0.1856   -0.0522   -0.7141 C   0  0  2  0  0  0  0  0  0  0  0  0
   -0.1321    1.3772   -0.9504 C   0  0  0  0  0  0  0  0  0  0  0  0
   -1.4953    1.6526   -0.3482 C   0  0  2  0  0  0  0  0  0  0  0  0
   -1.4670    2.7273    0.5345 O   0  0  0  0  0  0  0  0  0  0  0  0
   -1.8734    0.3829    0.3932 C   0  0  0  0  0  0  0  0  0  0  0  0
   -1.0542   -0.6470   -0.2225 N   0  0  0  0  0  0  0  0  0  0  0  0
   -1.4268   -1.9999   -0.3149 C   0  0  0  0  0  0  0  0  0  0  0  0
   -2.6737   -2.4772    0.2042 N   0  0  0  0  0  0  0  0  0  0  0  0
   -0.6477   -2.8096   -0.8658 O   0  0  0  0  0  0  0  0  0  0  0  0
    4.3951   -0.9118    0.2880 H   0  0  0  0  0  0  0  0  0  0  0  0
    3.5005   -0.3021    1.7824 H   0  0  0  0  0  0  0  0  0  0  0  0
    4.3823    0.8136    0.7254 H   0  0  0  0  0  0  0  0  0  0  0  0
    2.7228    0.7025   -0.9717 H   0  0  0  0  0  0  0  0  0  0  0  0
    0.3847   -0.5837   -1.6919 H   0  0  0  0  0  0  0  0  0  0  0  0
    0.5667    2.0986   -0.4974 H   0  0  0  0  0  0  0  0  0  0  0  0
   -0.1355    1.5807   -2.0397 H   0  0  0  0  0  0  0  0  0  0  0  0
   -2.2595    1.8481   -1.1028 H   0  0  0  0  0  0  0  0  0  0  0  0
   -0.9211    2.5208    1.3550 H   0  0  0  0  0  0  0  0  0  0  0  0
   -2.9260    0.1307    0.2122 H   0  0  0  0  0  0  0  0  0  0  0  0
   -1.6680    0.5143    1.4589 H   0  0  0  0  0  0  0  0  0  0  0  0
   -3.0533   -3.3854   -0.1150 H   0  0  0  0  0  0  0  0  0  0  0  0
   -3.1539   -1.8658    0.9015 H   0  0  0  0  0  0  0  0  0  0  0  0
  1  2  1  0
  2  3  1  0
  3  4  2  0
  3  5  1  0
  5  6  1  0
  6  7  1  0
  7  8  1  0
  7  9  1  0
  9 10  1  0
 10 11  1  0
 11 12  1  0
 11 13  2  0
 10  5  1  0
  1 14  1  0
  1 15  1  0
  1 16  1  0
  2 17  1  0
  5 18  1  6
  6 19  1  0
  6 20  1  0
  7 21  1  6
  8 22  1  0
  9 23  1  0
  9 24  1  0
 12 25  1  0
 12 26  1  0
M  END
$$$$

     RDKit          3D

 26 26  0  0  0  0  0  0  0  0999 V2000
    3.6932    0.7322    0.1032 C   0  0  0  0  0  0  0  0  0  0  0  0
    2.4812   -0.0228    0.2422 N   0  0  0  0  0  0  0  0  0  0  0  0
    1.1775    0.6245    0.2014 C   0  0  0  0  0  0  0  0  0  0  0  0
    1.2253    1.8492    0.0400 O   0  0  0  0  0  0  0  0  0  0  0  0
    0.0467   -0.2635    0.3551 C   0  0  2  0  0  0  0  0  0  0  0  0
   -0.0594   -1.2314   -0.8532 C   0  0  0  0  0  0  0  0  0  0  0  0
   -1.3200   -1.9756   -0.4694 C   0  0  2  0  0  0  0  0  0  0  0  0
   -2.0493   -2.3986   -1.5679 O   0  0  0  0  0  0  0  0  0  0  0  0
   -2.0987   -1.0047    0.3889 C   0  0  0  0  0  0  0  0  0  0  0  0
   -1.2682    0.2464    0.3883 N   0  0  0  0  0  0  0  0  0  0  0  0
   -1.8980    1.4970    0.4222 C   0  0  0  0  0  0  0  0  0  0  0  0
   -1.1959    2.7113    0.4350 N   0  0  0  0  0  0  0  0  0  0  0  0
   -3.1732    1.6082    0.4447 O   0  0  0  0  0  0  0  0  0  0  0  0
    4.1396    0.4616   -0.8949 H   0  0  0  0  0  0  0  0  0  0  0  0
    3.4919    1.8186    0.1821 H   0  0  0  0  0  0  0  0  0  0  0  0
    4.4226    0.3717    0.8670 H   0  0  0  0  0  0  0  0  0  0  0  0
    2.5496   -1.0508    0.3739 H   0  0  0  0  0  0  0  0  0  0  0  0
    0.1975   -0.9356    1.2470 H   0  0  0  0  0  0  0  0  0  0  0  0
   -0.1857   -0.6227   -1.7730 H   0  0  0  0  0  0  0  0  0  0  0  0
    0.8305   -1.8795   -0.8881 H   0  0  0  0  0  0  0  0  0  0  0  0
   -1.0101   -2.8744    0.1300 H   0  0  0  0  0  0  0  0  0  0  0  0
   -2.9236   -1.9137   -1.6262 H   0  0  0  0  0  0  0  0  0  0  0  0
   -3.0927   -0.8104   -0.0430 H   0  0  0  0  0  0  0  0  0  0  0  0
   -2.1492   -1.3526    1.4494 H   0  0  0  0  0  0  0  0  0  0  0  0
   -1.0328    3.2723   -0.4556 H   0  0  0  0  0  0  0  0  0  0  0  0
   -0.7988    3.1432    1.3009 H   0  0  0  0  0  0  0  0  0  0  0  0
  1  2  1  0
  2  3  1  0
  3  4  2  0
  3  5  1  0
  5  6  1  0
  6  7  1  0
  7  8  1  0
  7  9  1  0
  9 10  1  0
 10 11  1  0
 11 12  1  0
 11 13  2  0
 10  5  1  0
  1 14  1  0
  1 15  1  0
  1 16  1  0
  2 17  1  0
  5 18  1  1
  6 19  1  0
  6 20  1  0
  7 21  1  1
  8 22  1  0
  9 23  1  0
  9 24  1  0
 12 25  1  0
 12 26  1  0
M  END
$$$$
