
     RDKit          3D

 24 24  0  0  0  0  0  0  0  0999 V2000
   -3.1511   -0.0100    0.1188 C   0  0  0  0  0  0  0  0  0  0  0  0
   -2.3634    1.1645   -0.4145 C   0  0  2  0  0  0  0  0  0  0  0  0
   -1.2334    0.5790   -1.2873 C   0  0  0  0  0  0  0  0  0  0  0  0
   -0.3825   -0.1075   -0.2498 C   0  0  1  0  0  0  0  0  0  0  0  0
    1.0290   -0.0155   -0.6363 N   0  0  0  0  0  0  0  0  0  0  0  0
    1.7199   -1.1199    0.0219 C   0  0  0  0  0  0  0  0  0  0  0  0
    3.2012   -0.9036   -0.0254 C   0  0  0  0  0  0  0  0  0  0  0  0
    3.7033    0.2728   -0.6474 N   0  0  0  0  0  0  0  0  0  0  0  0
    3.9984   -1.7354    0.4735 O   0  0  0  0  0  0  0  0  0  0  0  0
   -0.6069    0.7434    0.9696 C   0  0  0  0  0  0  0  0  0  0  0  0
   -0.0032    0.5394    2.0566 O   0  0  0  0  0  0  0  0  0  0  0  0
   -1.5377    1.7009    0.6475 O   0  0  0  0  0  0  0  0  0  0  0  0
   -3.1320   -0.9053   -0.5165 H   0  0  0  0  0  0  0  0  0  0  0  0
   -2.7818   -0.2950    1.1367 H   0  0  0  0  0  0  0  0  0  0  0  0
   -4.1973    0.2877    0.2198 H   0  0  0  0  0  0  0  0  0  0  0  0
   -2.9359    1.9238   -0.9272 H   0  0  0  0  0  0  0  0  0  0  0  0
   -1.7039   -0.2248   -1.9173 H   0  0  0  0  0  0  0  0  0  0  0  0
   -0.7002    1.3351   -1.8593 H   0  0  0  0  0  0  0  0  0  0  0  0
   -0.6664   -1.1330   -0.1071 H   0  0  0  0  0  0  0  0  0  0  0  0
    1.0485   -0.2439   -1.6773 H   0  0  0  0  0  0  0  0  0  0  0  0
    1.5400   -2.0957   -0.5054 H   0  0  0  0  0  0  0  0  0  0  0  0
    1.4036   -1.1872    1.0808 H   0  0  0  0  0  0  0  0  0  0  0  0
    4.2346    0.2379   -1.5277 H   0  0  0  0  0  0  0  0  0  0  0  0
    3.5172    1.1925   -0.1663 H   0  0  0  0  0  0  0  0  0  0  0  0
  1  2  1  0
  2  3  1  0
  3  4  1  0
  4  5  1  0
  5  6  1  0
  6  7  1  0
  7  8  1  0
  7  9  2  0
  4 10  1  0
 10 11  2  0
 10 12  1  0
 12  2  1  0
  1 13  1  0
  1 14  1  0
  1 15  1  0
  2 16  1  6
  3 17  1  0
  3 18  1  0
  4 19  1  1
  5 20  1  0
  6 21  1  0
  6 22  1  0
  8 23  1  0
  8 24  1  0
M  END
$$$$

     RDKit          3D

 24 24  0  0  0  0  0  0  0  0999 V2000
   -2.7788    0.9623   -1.1834 C   0  0  0  0  0  0  0  0  0  0  0  0
   -2.3575    0.3184    0.0946 C   0  0  2  0  0  0  0  0  0  0  0  0
   -0.8360    0.4578    0.3416 C   0  0  0  0  0  0  0  0  0  0  0  0
   -0.3415   -0.9130   -0.0205 C   0  0  1  0  0  0  0  0  0  0  0  0
    0.9175   -1.3141    0.3860 N   0  0  0  0  0  0  0  0  0  0  0  0
    2.0939   -0.7183   -0.0717 C   0  0  0  0  0  0  0  0  0  0  0  0
    2.4489    0.6174    0.3899 C   0  0  0  0  0  0  0  0  0  0  0  0
    3.6673    1.2036   -0.1546 N   0  0  0  0  0  0  0  0  0  0  0  0
    1.7994    1.2974    1.2087 O   0  0  0  0  0  0  0  0  0  0  0  0
   -1.4639   -1.7353    0.5841 C   0  0  0  0  0  0  0  0  0  0  0  0
   -1.3791   -2.7436    1.3273 O   0  0  0  0  0  0  0  0  0  0  0  0
   -2.5985   -1.0721    0.0943 O   0  0  0  0  0  0  0  0  0  0  0  0
   -3.0249    0.1848   -1.9558 H   0  0  0  0  0  0  0  0  0  0  0  0
   -3.7219    1.5311   -1.0387 H   0  0  0  0  0  0  0  0  0  0  0  0
   -2.0300    1.6922   -1.5477 H   0  0  0  0  0  0  0  0  0  0  0  0
   -2.9212    0.7273    0.9756 H   0  0  0  0  0  0  0  0  0  0  0  0
   -0.7064    0.6644    1.4119 H   0  0  0  0  0  0  0  0  0  0  0  0
   -0.4144    1.2228   -0.2963 H   0  0  0  0  0  0  0  0  0  0  0  0
   -0.5078   -1.0663   -1.1491 H   0  0  0  0  0  0  0  0  0  0  0  0
    0.9895   -1.9851    1.1772 H   0  0  0  0  0  0  0  0  0  0  0  0
    2.9628   -1.4216    0.1305 H   0  0  0  0  0  0  0  0  0  0  0  0
    2.1067   -0.6848   -1.2144 H   0  0  0  0  0  0  0  0  0  0  0  0
    4.2427    1.7474    0.4996 H   0  0  0  0  0  0  0  0  0  0  0  0
    3.8531    1.0272   -1.1491 H   0  0  0  0  0  0  0  0  0  0  0  0
  1  2  1  0
  2  3  1  0
  3  4  1  0
  4  5  1  0
  5  6  1  0
  6  7  1  0
  7  8  1  0
  7  9  2  0
  4 10  1  0
 10 11  2  0
 10 12  1  0
 12  2  1  0
  1 13  1  0
  1 14  1  0
  1 15  1  0
  2 16  1  1
  3 17  1  0
  3 18  1  0
  4 19  1  6
  5 20  1  0
  6 21  1  0
  6 22  1  0
  8 23  1  0
  8 24  1  0
M  END
$$$$

     RDKit          3D

 24 24  0  0  0  0  0  0  0  0999 V2000
   -3.3111   -0.6880    0.7775 C   0  0  0  0  0  0  0  0  0  0  0  0
   -2.2184    0.0141    0.0561 C   0  0  2  0  0  0  0  0  0  0  0  0
   -0.8416   -0.1859    0.6876 C   0  0  0  0  0  0  0  0  0  0  0  0
   -0.0231    0.9252    0.0116 C   0  0  1  0  0  0  0  0  0  0  0  0
    0.6890    0.4052   -1.1353 N   0  0  0  0  0  0  0  0  0  0  0  0
    1.6999   -0.5541   -0.8394 C   0  0  0  0  0  0  0  0  0  0  0  0
    2.8549    0.1008   -0.1669 C   0  0  0  0  0  0  0  0  0  0  0  0
    4.0016   -0.6395    0.2598 N   0  0  0  0  0  0  0  0  0  0  0  0
    2.8884    1.3282    0.0646 O   0  0  0  0  0  0  0  0  0  0  0  0
   -1.0688    1.8709   -0.4444 C   0  0  0  0  0  0  0  0  0  0  0  0
   -0.9297    2.9124   -1.1756 O   0  0  0  0  0  0  0  0  0  0  0  0
   -2.2884    1.4225    0.0771 O   0  0  0  0  0  0  0  0  0  0  0  0
   -3.7623   -1.4659    0.1087 H   0  0  0  0  0  0  0  0  0  0  0  0
   -2.9658   -1.2128    1.7087 H   0  0  0  0  0  0  0  0  0  0  0  0
   -4.1368    0.0158    0.9961 H   0  0  0  0  0  0  0  0  0  0  0  0
   -2.1422   -0.3165   -1.0031 H   0  0  0  0  0  0  0  0  0  0  0  0
   -0.8557   -0.1006    1.7796 H   0  0  0  0  0  0  0  0  0  0  0  0
   -0.4794   -1.1667    0.3326 H   0  0  0  0  0  0  0  0  0  0  0  0
    0.6088    1.4436    0.7398 H   0  0  0  0  0  0  0  0  0  0  0  0
    0.0263    0.1187   -1.8920 H   0  0  0  0  0  0  0  0  0  0  0  0
    1.3914   -1.4018   -0.1833 H   0  0  0  0  0  0  0  0  0  0  0  0
    2.0584   -1.0137   -1.7915 H   0  0  0  0  0  0  0  0  0  0  0  0
    4.0211   -0.9704    1.2301 H   0  0  0  0  0  0  0  0  0  0  0  0
    4.7837   -0.8413   -0.3743 H   0  0  0  0  0  0  0  0  0  0  0  0
  1  2  1  0
  2  3  1  0
  3  4  1  0
  4  5  1  0
  5  6  1  0
  6  7  1  0
  7  8  1  0
  7  9  2  0
  4 10  1  0
 10 11  2  0
 10 12  1  0
 12  2  1  0
  1 13  1  0
  1 14  1  0
  1 15  1  0
  2 16  1  6
  3 17  1  0
  3 18  1  0
  4 19  1  1
  5 20  1  0
  6 21  1  0
  6 22  1  0
  8 23  1  0
  8 24  1  0
M  END
$$$$

     RDKit          3D

 24 24  0  0  0  0  0  0  0  0999 V2000
   -3.3643    1.0606   -0.5347 C   0  0  0  0  0  0  0  0  0  0  0  0
   -2.3336    0.2853    0.2494 C   0  0  2  0  0  0  0  0  0  0  0  0
   -0.9233    0.5163   -0.3100 C   0  0  0  0  0  0  0  0  0  0  0  0
   -0.3183   -0.8478   -0.3009 C   0  0  1  0  0  0  0  0  0  0  0  0
    0.8470   -0.9843    0.5390 N   0  0  0  0  0  0  0  0  0  0  0  0
    1.8830   -0.1227    0.0410 C   0  0  0  0  0  0  0  0  0  0  0  0
    3.1062   -0.2306    0.8483 C   0  0  0  0  0  0  0  0  0  0  0  0
    4.2645    0.5278    0.5582 N   0  0  0  0  0  0  0  0  0  0  0  0
    3.1428   -1.0222    1.8420 O   0  0  0  0  0  0  0  0  0  0  0  0
   -1.3691   -1.7827    0.1644 C   0  0  0  0  0  0  0  0  0  0  0  0
   -1.1731   -2.9884    0.4686 O   0  0  0  0  0  0  0  0  0  0  0  0
   -2.5712   -1.0915    0.1975 O   0  0  0  0  0  0  0  0  0  0  0  0
   -3.8081    0.4385   -1.3244 H   0  0  0  0  0  0  0  0  0  0  0  0
   -4.1798    1.3305    0.1712 H   0  0  0  0  0  0  0  0  0  0  0  0
   -2.9377    2.0158   -0.9420 H   0  0  0  0  0  0  0  0  0  0  0  0
   -2.3441    0.5903    1.3279 H   0  0  0  0  0  0  0  0  0  0  0  0
   -1.0644    0.9156   -1.3527 H   0  0  0  0  0  0  0  0  0  0  0  0
   -0.4141    1.2533    0.3163 H   0  0  0  0  0  0  0  0  0  0  0  0
   -0.0803   -1.1213   -1.3540 H   0  0  0  0  0  0  0  0  0  0  0  0
    0.6024   -0.7317    1.5412 H   0  0  0  0  0  0  0  0  0  0  0  0
    2.1508   -0.5169   -0.9820 H   0  0  0  0  0  0  0  0  0  0  0  0
    1.5469    0.9239   -0.0563 H   0  0  0  0  0  0  0  0  0  0  0  0
    4.8943    0.7756    1.3551 H   0  0  0  0  0  0  0  0  0  0  0  0
    4.4434    0.8069   -0.4287 H   0  0  0  0  0  0  0  0  0  0  0  0
  1  2  1  0
  2  3  1  0
  3  4  1  0
  4  5  1  0
  5  6  1  0
  6  7  1  0
  7  8  1  0
  7  9  2  0
  4 10  1  0
 10 11  2  0
 10 12  1  0
 12  2  1  0
  1 13  1  0
  1 14  1  0
  1 15  1  0
  2 16  1  1
  3 17  1  0
  3 18  1  0
  4 19  1  6
  5 20  1  0
  6 21  1  0
  6 22  1  0
  8 23  1  0
  8 24  1  0
M  END
$$$$

     RDKit          3D

 24 24  0  0  0  0  0  0  0  0999 V2000
   -3.3107   -0.5766   -0.4724 C   0  0  0  0  0  0  0  0  0  0  0  0
   -2.0577    0.2844   -0.4987 C   0  0  2  0  0  0  0  0  0  0  0  0
   -0.8020   -0.5844   -0.4874 C   0  0  0  0  0  0  0  0  0  0  0  0
   -0.0682   -0.1100    0.7231 C   0  0  1  0  0  0  0  0  0  0  0  0
    0.7110    1.0364    0.4539 N   0  0  0  0  0  0  0  0  0  0  0  0
    1.7828    0.8406   -0.4625 C   0  0  0  0  0  0  0  0  0  0  0  0
    2.8443    0.0067    0.1780 C   0  0  0  0  0  0  0  0  0  0  0  0
    4.0167   -0.3867   -0.4827 N   0  0  0  0  0  0  0  0  0  0  0  0
    2.6347   -0.3422    1.3894 O   0  0  0  0  0  0  0  0  0  0  0  0
   -1.2330    0.2682    1.6098 C   0  0  0  0  0  0  0  0  0  0  0  0
   -1.3785   -0.0178    2.8369 O   0  0  0  0  0  0  0  0  0  0  0  0
   -2.0624    0.9770    0.7600 O   0  0  0  0  0  0  0  0  0  0  0  0
   -3.5945   -0.9085   -1.4797 H   0  0  0  0  0  0  0  0  0  0  0  0
   -4.1155    0.0659   -0.0445 H   0  0  0  0  0  0  0  0  0  0  0  0
   -3.0904   -1.3993    0.2469 H   0  0  0  0  0  0  0  0  0  0  0  0
   -2.0433    1.0071   -1.3253 H   0  0  0  0  0  0  0  0  0  0  0  0
   -0.2814   -0.5075   -1.4332 H   0  0  0  0  0  0  0  0  0  0  0  0
   -1.1560   -1.6343   -0.2692 H   0  0  0  0  0  0  0  0  0  0  0  0
    0.4593   -0.9419    1.2432 H   0  0  0  0  0  0  0  0  0  0  0  0
    0.1814    1.9068    0.3719 H   0  0  0  0  0  0  0  0  0  0  0  0
    2.2156    1.8141   -0.8253 H   0  0  0  0  0  0  0  0  0  0  0  0
    1.4726    0.2861   -1.3798 H   0  0  0  0  0  0  0  0  0  0  0  0
    4.1154   -1.3846   -0.7720 H   0  0  0  0  0  0  0  0  0  0  0  0
    4.7599    0.3007   -0.6733 H   0  0  0  0  0  0  0  0  0  0  0  0
  1  2  1  0
  2  3  1  0
  3  4  1  0
  4  5  1  0
  5  6  1  0
  6  7  1  0
  7  8  1  0
  7  9  2  0
  4 10  1  0
 10 11  2  0
 10 12  1  0
 12  2  1  0
  1 13  1  0
  1 14  1  0
  1 15  1  0
  2 16  1  6
  3 17  1  0
  3 18  1  0
  4 19  1  1
  5 20  1  0
  6 21  1  0
  6 22  1  0
  8 23  1  0
  8 24  1  0
M  END
$$$$

     RDKit          3D

 24 24  0  0  0  0  0  0  0  0999 V2000
   -2.9598   -0.0823    0.8716 C   0  0  0  0  0  0  0  0  0  0  0  0
   -2.4750   -0.3028   -0.5490 C   0  0  2  0  0  0  0  0  0  0  0  0
   -1.0395   -0.7977   -0.5397 C   0  0  0  0  0  0  0  0  0  0  0  0
   -0.4024    0.4121    0.1450 C   0  0  1  0  0  0  0  0  0  0  0  0
    1.0005    0.5183   -0.1087 N   0  0  0  0  0  0  0  0  0  0  0  0
    1.7709   -0.5910    0.3935 C   0  0  0  0  0  0  0  0  0  0  0  0
    3.2178   -0.4327    0.1084 C   0  0  0  0  0  0  0  0  0  0  0  0
    3.7490    0.6755   -0.5731 N   0  0  0  0  0  0  0  0  0  0  0  0
    3.9990   -1.3395    0.4994 O   0  0  0  0  0  0  0  0  0  0  0  0
   -1.1351    1.4872   -0.5737 C   0  0  0  0  0  0  0  0  0  0  0  0
   -0.7883    2.6867   -0.6834 O   0  0  0  0  0  0  0  0  0  0  0  0
   -2.2997    0.9764   -1.1319 O   0  0  0  0  0  0  0  0  0  0  0  0
   -2.5810   -0.8441    1.5644 H   0  0  0  0  0  0  0  0  0  0  0  0
   -2.7679    0.9549    1.2228 H   0  0  0  0  0  0  0  0  0  0  0  0
   -4.0793   -0.1879    0.8421 H   0  0  0  0  0  0  0  0  0  0  0  0
   -3.1453   -0.9488   -1.1327 H   0  0  0  0  0  0  0  0  0  0  0  0
   -0.7330   -0.8635   -1.6070 H   0  0  0  0  0  0  0  0  0  0  0  0
   -0.8950   -1.7212    0.0147 H   0  0  0  0  0  0  0  0  0  0  0  0
   -0.6740    0.3449    1.2080 H   0  0  0  0  0  0  0  0  0  0  0  0
    1.3312    1.3696    0.4196 H   0  0  0  0  0  0  0  0  0  0  0  0
    1.5719   -0.8195    1.4620 H   0  0  0  0  0  0  0  0  0  0  0  0
    1.4321   -1.4972   -0.1809 H   0  0  0  0  0  0  0  0  0  0  0  0
    3.4559    1.6627   -0.3167 H   0  0  0  0  0  0  0  0  0  0  0  0
    4.4468    0.6282   -1.3550 H   0  0  0  0  0  0  0  0  0  0  0  0
  1  2  1  0
  2  3  1  0
  3  4  1  0
  4  5  1  0
  5  6  1  0
  6  7  1  0
  7  8  1  0
  7  9  2  0
  4 10  1  0
 10 11  2  0
 10 12  1  0
 12  2  1  0
  1 13  1  0
  1 14  1  0
  1 15  1  0
  2 16  1  6
  3 17  1  0
  3 18  1  0
  4 19  1  1
  5 20  1  0
  6 21  1  0
  6 22  1  0
  8 23  1  0
  8 24  1  0
M  END
$$$$

     RDKit          3D

 24 24  0  0  0  0  0  0  0  0999 V2000
   -3.4936   -0.3000    0.0537 C   0  0  0  0  0  0  0  0  0  0  0  0
   -2.3220   -0.9968   -0.6360 C   0  0  2  0  0  0  0  0  0  0  0  0
   -1.1479   -0.8824    0.3493 C   0  0  0  0  0  0  0  0  0  0  0  0
   -0.5449    0.4271   -0.1538 C   0  0  1  0  0  0  0  0  0  0  0  0
    0.6972    0.7758    0.3322 N   0  0  0  0  0  0  0  0  0  0  0  0
    1.8541    0.0253    0.0753 C   0  0  0  0  0  0  0  0  0  0  0  0
    3.0045    0.6433    0.8042 C   0  0  0  0  0  0  0  0  0  0  0  0
    4.3144    0.1008    0.7355 N   0  0  0  0  0  0  0  0  0  0  0  0
    2.8073    1.6576    1.4868 O   0  0  0  0  0  0  0  0  0  0  0  0
   -0.6431    0.1641   -1.6166 C   0  0  0  0  0  0  0  0  0  0  0  0
    0.2005    0.3319   -2.5152 O   0  0  0  0  0  0  0  0  0  0  0  0
   -1.9199   -0.3321   -1.8003 O   0  0  0  0  0  0  0  0  0  0  0  0
   -4.4667   -0.6153   -0.3496 H   0  0  0  0  0  0  0  0  0  0  0  0
   -3.4665   -0.6591    1.0998 H   0  0  0  0  0  0  0  0  0  0  0  0
   -3.3551    0.7939    0.0697 H   0  0  0  0  0  0  0  0  0  0  0  0
   -2.5953   -2.0342   -0.8153 H   0  0  0  0  0  0  0  0  0  0  0  0
   -0.4771   -1.7375    0.2799 H   0  0  0  0  0  0  0  0  0  0  0  0
   -1.4771   -0.7212    1.3813 H   0  0  0  0  0  0  0  0  0  0  0  0
   -1.2829    1.2437    0.0564 H   0  0  0  0  0  0  0  0  0  0  0  0
    0.8353    1.7813    0.4779 H   0  0  0  0  0  0  0  0  0  0  0  0
    1.7754   -1.0582    0.3061 H   0  0  0  0  0  0  0  0  0  0  0  0
    2.0991    0.1356   -1.0328 H   0  0  0  0  0  0  0  0  0  0  0  0
    4.9621    0.4166   -0.0037 H   0  0  0  0  0  0  0  0  0  0  0  0
    4.6422   -0.6141    1.4153 H   0  0  0  0  0  0  0  0  0  0  0  0
  1  2  1  0
  2  3  1  0
  3  4  1  0
  4  5  1  0
  5  6  1  0
  6  7  1  0
  7  8  1  0
  7  9  2  0
  4 10  1  0
 10 11  2  0
 10 12  1  0
 12  2  1  0
  1 13  1  0
  1 14  1  0
  1 15  1  0
  2 16  1  6
  3 17  1  0
  3 18  1  0
  4 19  1  6
  5 20  1  0
  6 21  1  0
  6 22  1  0
  8 23  1  0
  8 24  1  0
M  END
$$$$

     RDKit          3D

 24 24  0  0  0  0  0  0  0  0999 V2000
   -3.5534    0.2028    0.4647 C   0  0  0  0  0  0  0  0  0  0  0  0
   -2.3288   -0.4706   -0.1338 C   0  0  2  0  0  0  0  0  0  0  0  0
   -1.0728    0.2595    0.2372 C   0  0  0  0  0  0  0  0  0  0  0  0
   -0.3006    0.4747   -1.0255 C   0  0  1  0  0  0  0  0  0  0  0  0
    0.9832   -0.1451   -0.9413 N   0  0  0  0  0  0  0  0  0  0  0  0
    1.8682    0.3655    0.0525 C   0  0  0  0  0  0  0  0  0  0  0  0
    3.1433   -0.3980   -0.0094 C   0  0  0  0  0  0  0  0  0  0  0  0
    4.2395   -0.1342    0.8526 N   0  0  0  0  0  0  0  0  0  0  0  0
    3.3020   -1.3170   -0.8369 O   0  0  0  0  0  0  0  0  0  0  0  0
   -1.1008   -0.2434   -2.0645 C   0  0  0  0  0  0  0  0  0  0  0  0
   -0.6534   -0.5961   -3.2027 O   0  0  0  0  0  0  0  0  0  0  0  0
   -2.3720   -0.4351   -1.5500 O   0  0  0  0  0  0  0  0  0  0  0  0
   -4.2815    0.3401   -0.3625 H   0  0  0  0  0  0  0  0  0  0  0  0
   -4.0247   -0.5096    1.1743 H   0  0  0  0  0  0  0  0  0  0  0  0
   -3.3096    1.1770    0.9254 H   0  0  0  0  0  0  0  0  0  0  0  0
   -2.2567   -1.5257    0.2158 H   0  0  0  0  0  0  0  0  0  0  0  0
   -0.4920   -0.3281    0.9774 H   0  0  0  0  0  0  0  0  0  0  0  0
   -1.3318    1.2747    0.6536 H   0  0  0  0  0  0  0  0  0  0  0  0
   -0.2487    1.5417   -1.3103 H   0  0  0  0  0  0  0  0  0  0  0  0
    0.9934   -1.1660   -1.0157 H   0  0  0  0  0  0  0  0  0  0  0  0
    1.4399    0.2559    1.0672 H   0  0  0  0  0  0  0  0  0  0  0  0
    2.0990    1.4515   -0.0884 H   0  0  0  0  0  0  0  0  0  0  0  0
    4.7093    0.7877    0.7911 H   0  0  0  0  0  0  0  0  0  0  0  0
    4.5489   -0.8620    1.5257 H   0  0  0  0  0  0  0  0  0  0  0  0
  1  2  1  0
  2  3  1  0
  3  4  1  0
  4  5  1  0
  5  6  1  0
  6  7  1  0
  7  8  1  0
  7  9  2  0
  4 10  1  0
 10 11  2  0
 10 12  1  0
 12  2  1  0
  1 13  1  0
  1 14  1  0
  1 15  1  0
  2 16  1  6
  3 17  1  0
  3 18  1  0
  4 19  1  6
  5 20  1  0
  6 21  1  0
  6 22  1  0
  8 23  1  0
  8 24  1  0
M  END
$$$$
