
     RDKit          3D

 24 25  0  0  0  0  0  0  0  0999 V2000
   -2.5147   -0.1035   -0.6330 C   0  0  0  0  0  0  0  0  0  0  0  0
   -1.4362   -0.8352    0.1825 C   0  0  1  0  0  0  0  0  0  0  0  0
   -0.5692   -1.5523   -0.6932 N   0  0  0  0  0  0  0  0  0  0  0  0
   -0.7706    0.1131    1.0883 C   0  0  0  0  0  0  0  0  0  0  0  0
   -1.0767    0.1778    2.4467 C   0  0  0  0  0  0  0  0  0  0  0  0
   -0.3010    1.1538    2.9383 N   0  0  0  0  0  0  0  0  0  0  0  0
    0.4281    1.6556    1.9674 N   0  0  0  0  0  0  0  0  0  0  0  0
    0.1528    1.0256    0.8154 N   0  0  0  0  0  0  0  0  0  0  0  0
    0.8012    1.3449   -0.4295 C   0  0  0  0  0  0  0  0  0  0  0  0
    2.0629    0.5902   -0.5718 C   0  0  0  0  0  0  0  0  0  0  0  0
    3.2075    0.9171    0.0937 N   0  0  0  0  0  0  0  0  0  0  0  0
    4.1409    0.0591   -0.2741 N   0  0  0  0  0  0  0  0  0  0  0  0
    3.6561   -0.8055   -1.1442 N   0  0  0  0  0  0  0  0  0  0  0  0
    2.3752   -0.4732   -1.3241 N   0  0  0  0  0  0  0  0  0  0  0  0
   -3.4507   -0.0669   -0.0084 H   0  0  0  0  0  0  0  0  0  0  0  0
   -2.1832    0.8966   -0.9132 H   0  0  0  0  0  0  0  0  0  0  0  0
   -2.7258   -0.7032   -1.5319 H   0  0  0  0  0  0  0  0  0  0  0  0
   -1.9994   -1.5827    0.7949 H   0  0  0  0  0  0  0  0  0  0  0  0
   -0.7260   -1.4111   -1.6987 H   0  0  0  0  0  0  0  0  0  0  0  0
   -0.3114   -2.4960   -0.3972 H   0  0  0  0  0  0  0  0  0  0  0  0
   -1.7815   -0.4211    2.9933 H   0  0  0  0  0  0  0  0  0  0  0  0
    0.1729    1.0875   -1.3032 H   0  0  0  0  0  0  0  0  0  0  0  0
    1.0778    2.4282   -0.4254 H   0  0  0  0  0  0  0  0  0  0  0  0
    1.7710   -0.9991   -1.9726 H   0  0  0  0  0  0  0  0  0  0  0  0
  1  2  1  0
  2  3  1  0
  2  4  1  0
  4  5  2  0
  5  6  1  0
  6  7  2  0
  7  8  1  0
  8  9  1  0
  9 10  1  0
 10 11  2  0
 11 12  1  0
 12 13  2  0
 13 14  1  0
  8  4  1  0
 14 10  1  0
  1 15  1  0
  1 16  1  0
  1 17  1  0
  2 18  1  1
  3 19  1  0
  3 20  1  0
  5 21  1  0
  9 22  1  0
  9 23  1  0
 14 24  1  0
M  END
$$$$

     RDKit          3D

 24 25  0  0  0  0  0  0  0  0999 V2000
    1.3866    0.8463   -1.5653 C   0  0  0  0  0  0  0  0  0  0  0  0
    1.5698   -0.1040   -0.3889 C   0  0  1  0  0  0  0  0  0  0  0  0
    2.9881   -0.0885   -0.0251 N   0  0  0  0  0  0  0  0  0  0  0  0
    0.8112    0.4361    0.7429 C   0  0  0  0  0  0  0  0  0  0  0  0
    1.1442    1.5584    1.4554 C   0  0  0  0  0  0  0  0  0  0  0  0
    0.1795    1.6832    2.3948 N   0  0  0  0  0  0  0  0  0  0  0  0
   -0.6749    0.6857    2.2409 N   0  0  0  0  0  0  0  0  0  0  0  0
   -0.3167   -0.0966    1.2374 N   0  0  0  0  0  0  0  0  0  0  0  0
   -1.0293   -1.2772    0.7990 C   0  0  0  0  0  0  0  0  0  0  0  0
   -2.0482   -0.9831   -0.2323 C   0  0  0  0  0  0  0  0  0  0  0  0
   -1.8303   -0.9900   -1.5542 N   0  0  0  0  0  0  0  0  0  0  0  0
   -2.9676   -0.6803   -2.1927 N   0  0  0  0  0  0  0  0  0  0  0  0
   -3.8706   -0.4866   -1.2601 N   0  0  0  0  0  0  0  0  0  0  0  0
   -3.3255   -0.6679   -0.0485 N   0  0  0  0  0  0  0  0  0  0  0  0
    0.3116    0.9044   -1.7754 H   0  0  0  0  0  0  0  0  0  0  0  0
    1.7950    1.8405   -1.2454 H   0  0  0  0  0  0  0  0  0  0  0  0
    1.9669    0.4546   -2.4432 H   0  0  0  0  0  0  0  0  0  0  0  0
    1.2562   -1.1246   -0.6799 H   0  0  0  0  0  0  0  0  0  0  0  0
    3.0641   -0.6574    0.8454 H   0  0  0  0  0  0  0  0  0  0  0  0
    3.2247    0.9169    0.1341 H   0  0  0  0  0  0  0  0  0  0  0  0
    1.9929    2.2390    1.3322 H   0  0  0  0  0  0  0  0  0  0  0  0
   -1.5005   -1.7933    1.6695 H   0  0  0  0  0  0  0  0  0  0  0  0
   -0.3268   -2.0341    0.3618 H   0  0  0  0  0  0  0  0  0  0  0  0
   -3.8005   -0.5815    0.8695 H   0  0  0  0  0  0  0  0  0  0  0  0
  1  2  1  0
  2  3  1  0
  2  4  1  0
  4  5  2  0
  5  6  1  0
  6  7  2  0
  7  8  1  0
  8  9  1  0
  9 10  1  0
 10 11  2  0
 11 12  1  0
 12 13  2  0
 13 14  1  0
  8  4  1  0
 14 10  1  0
  1 15  1  0
  1 16  1  0
  1 17  1  0
  2 18  1  6
  3 19  1  0
  3 20  1  0
  5 21  1  0
  9 22  1  0
  9 23  1  0
 14 24  1  0
M  END
$$$$

     RDKit          3D

 24 25  0  0  0  0  0  0  0  0999 V2000
   -1.5947   -1.4408   -0.3543 C   0  0  0  0  0  0  0  0  0  0  0  0
   -1.5607    0.0658   -0.4903 C   0  0  1  0  0  0  0  0  0  0  0  0
   -2.8915    0.6425   -0.4119 N   0  0  0  0  0  0  0  0  0  0  0  0
   -0.7744    0.5956    0.6466 C   0  0  0  0  0  0  0  0  0  0  0  0
   -1.2291    0.6864    1.9402 C   0  0  0  0  0  0  0  0  0  0  0  0
   -0.2413    1.2104    2.6731 N   0  0  0  0  0  0  0  0  0  0  0  0
    0.7649    1.4243    1.8478 N   0  0  0  0  0  0  0  0  0  0  0  0
    0.4768    1.0652    0.6204 N   0  0  0  0  0  0  0  0  0  0  0  0
    1.3644    1.1719   -0.5104 C   0  0  0  0  0  0  0  0  0  0  0  0
    2.1696   -0.0664   -0.6589 C   0  0  0  0  0  0  0  0  0  0  0  0
    1.7759   -1.1238   -1.3993 N   0  0  0  0  0  0  0  0  0  0  0  0
    2.7266   -2.0289   -1.3024 N   0  0  0  0  0  0  0  0  0  0  0  0
    3.6851   -1.5764   -0.5372 N   0  0  0  0  0  0  0  0  0  0  0  0
    3.3616   -0.3713   -0.1316 N   0  0  0  0  0  0  0  0  0  0  0  0
   -1.8440   -1.9557   -1.2971 H   0  0  0  0  0  0  0  0  0  0  0  0
   -2.3042   -1.7693    0.4322 H   0  0  0  0  0  0  0  0  0  0  0  0
   -0.5863   -1.7899   -0.0514 H   0  0  0  0  0  0  0  0  0  0  0  0
   -1.0845    0.3106   -1.4492 H   0  0  0  0  0  0  0  0  0  0  0  0
   -3.5306    0.2133   -1.0892 H   0  0  0  0  0  0  0  0  0  0  0  0
   -3.2424    0.7421    0.5470 H   0  0  0  0  0  0  0  0  0  0  0  0
   -2.2108    0.3844    2.2870 H   0  0  0  0  0  0  0  0  0  0  0  0
    2.0891    2.0104   -0.3584 H   0  0  0  0  0  0  0  0  0  0  0  0
    0.7763    1.3271   -1.4436 H   0  0  0  0  0  0  0  0  0  0  0  0
    3.9041    0.2725    0.4910 H   0  0  0  0  0  0  0  0  0  0  0  0
  1  2  1  0
  2  3  1  0
  2  4  1  0
  4  5  2  0
  5  6  1  0
  6  7  2  0
  7  8  1  0
  8  9  1  0
  9 10  1  0
 10 11  2  0
 11 12  1  0
 12 13  2  0
 13 14  1  0
  8  4  1  0
 14 10  1  0
  1 15  1  0
  1 16  1  0
  1 17  1  0
  2 18  1  6
  3 19  1  0
  3 20  1  0
  5 21  1  0
  9 22  1  0
  9 23  1  0
 14 24  1  0
M  END
$$$$

     RDKit          3D

 24 25  0  0  0  0  0  0  0  0999 V2000
   -1.2199    1.2787   -0.4297 C   0  0  0  0  0  0  0  0  0  0  0  0
   -1.6936    0.0774    0.2740 C   0  0  1  0  0  0  0  0  0  0  0  0
   -2.3967   -0.7113   -0.7809 N   0  0  0  0  0  0  0  0  0  0  0  0
   -0.7576   -0.8161    0.9129 C   0  0  0  0  0  0  0  0  0  0  0  0
   -1.1248   -2.1611    1.1362 C   0  0  0  0  0  0  0  0  0  0  0  0
   -0.1115   -2.7734    1.7517 N   0  0  0  0  0  0  0  0  0  0  0  0
    0.8595   -1.9162    1.9303 N   0  0  0  0  0  0  0  0  0  0  0  0
    0.4560   -0.7268    1.4162 N   0  0  0  0  0  0  0  0  0  0  0  0
    1.3042    0.4246    1.4713 C   0  0  0  0  0  0  0  0  0  0  0  0
    2.1735    0.4762    0.2729 C   0  0  0  0  0  0  0  0  0  0  0  0
    3.2440   -0.3402    0.0265 N   0  0  0  0  0  0  0  0  0  0  0  0
    3.8221   -0.0321   -1.0956 N   0  0  0  0  0  0  0  0  0  0  0  0
    3.1697    0.9688   -1.6097 N   0  0  0  0  0  0  0  0  0  0  0  0
    2.1582    1.2951   -0.7885 N   0  0  0  0  0  0  0  0  0  0  0  0
   -0.9025    2.1421    0.1519 H   0  0  0  0  0  0  0  0  0  0  0  0
   -0.5636    1.0333   -1.3125 H   0  0  0  0  0  0  0  0  0  0  0  0
   -2.1494    1.6794   -0.9732 H   0  0  0  0  0  0  0  0  0  0  0  0
   -2.5451    0.3927    0.9418 H   0  0  0  0  0  0  0  0  0  0  0  0
   -2.9108   -0.0366   -1.4001 H   0  0  0  0  0  0  0  0  0  0  0  0
   -3.0912   -1.3552   -0.3124 H   0  0  0  0  0  0  0  0  0  0  0  0
   -2.0454   -2.6625    0.8784 H   0  0  0  0  0  0  0  0  0  0  0  0
    2.0298    0.3024    2.3267 H   0  0  0  0  0  0  0  0  0  0  0  0
    0.7872    1.3966    1.5449 H   0  0  0  0  0  0  0  0  0  0  0  0
    1.5080    2.0642   -0.9806 H   0  0  0  0  0  0  0  0  0  0  0  0
  1  2  1  0
  2  3  1  0
  2  4  1  0
  4  5  2  0
  5  6  1  0
  6  7  2  0
  7  8  1  0
  8  9  1  0
  9 10  1  0
 10 11  2  0
 11 12  1  0
 12 13  2  0
 13 14  1  0
  8  4  1  0
 14 10  1  0
  1 15  1  0
  1 16  1  0
  1 17  1  0
  2 18  1  1
  3 19  1  0
  3 20  1  0
  5 21  1  0
  9 22  1  0
  9 23  1  0
 14 24  1  0
M  END
$$$$

     RDKit          3D

 24 25  0  0  0  0  0  0  0  0999 V2000
   -2.6954    0.2426   -0.0449 C   0  0  0  0  0  0  0  0  0  0  0  0
   -1.3383   -0.3370    0.3467 C   0  0  1  0  0  0  0  0  0  0  0  0
   -1.5879   -1.6937    0.7909 N   0  0  0  0  0  0  0  0  0  0  0  0
   -0.4178   -0.3484   -0.8260 C   0  0  0  0  0  0  0  0  0  0  0  0
   -0.5163   -1.1899   -1.9109 C   0  0  0  0  0  0  0  0  0  0  0  0
    0.5012   -0.8719   -2.7335 N   0  0  0  0  0  0  0  0  0  0  0  0
    1.1756    0.1112   -2.1695 N   0  0  0  0  0  0  0  0  0  0  0  0
    0.6430    0.4527   -1.0092 N   0  0  0  0  0  0  0  0  0  0  0  0
    1.1390    1.5045   -0.1198 C   0  0  0  0  0  0  0  0  0  0  0  0
    2.1277    0.9347    0.8314 C   0  0  0  0  0  0  0  0  0  0  0  0
    3.4523    0.8469    0.6262 N   0  0  0  0  0  0  0  0  0  0  0  0
    4.0431    0.2946    1.6594 N   0  0  0  0  0  0  0  0  0  0  0  0
    3.0831    0.0306    2.5259 N   0  0  0  0  0  0  0  0  0  0  0  0
    1.9122    0.4099    2.0463 N   0  0  0  0  0  0  0  0  0  0  0  0
   -2.7673    1.3147    0.2312 H   0  0  0  0  0  0  0  0  0  0  0  0
   -3.5208   -0.2774    0.4900 H   0  0  0  0  0  0  0  0  0  0  0  0
   -2.8414    0.1144   -1.1351 H   0  0  0  0  0  0  0  0  0  0  0  0
   -0.9606    0.2856    1.1639 H   0  0  0  0  0  0  0  0  0  0  0  0
   -2.4000   -2.1124    0.3216 H   0  0  0  0  0  0  0  0  0  0  0  0
   -0.7403   -2.2707    0.8359 H   0  0  0  0  0  0  0  0  0  0  0  0
   -1.2710   -1.9725   -2.0859 H   0  0  0  0  0  0  0  0  0  0  0  0
    1.6611    2.2864   -0.7011 H   0  0  0  0  0  0  0  0  0  0  0  0
    0.3170    1.9358    0.4882 H   0  0  0  0  0  0  0  0  0  0  0  0
    1.0018    0.3093    2.5404 H   0  0  0  0  0  0  0  0  0  0  0  0
  1  2  1  0
  2  3  1  0
  2  4  1  0
  4  5  2  0
  5  6  1  0
  6  7  2  0
  7  8  1  0
  8  9  1  0
  9 10  1  0
 10 11  2  0
 11 12  1  0
 12 13  2  0
 13 14  1  0
  8  4  1  0
 14 10  1  0
  1 15  1  0
  1 16  1  0
  1 17  1  0
  2 18  1  1
  3 19  1  0
  3 20  1  0
  5 21  1  0
  9 22  1  0
  9 23  1  0
 14 24  1  0
M  END
$$$$

     RDKit          3D

 24 25  0  0  0  0  0  0  0  0999 V2000
   -2.6268    0.7665    0.0333 C   0  0  0  0  0  0  0  0  0  0  0  0
   -1.3629    0.1531    0.5799 C   0  0  1  0  0  0  0  0  0  0  0  0
   -1.7348   -0.6674    1.7303 N   0  0  0  0  0  0  0  0  0  0  0  0
   -0.6702   -0.6616   -0.4245 C   0  0  0  0  0  0  0  0  0  0  0  0
   -1.0502   -1.9266   -0.8700 C   0  0  0  0  0  0  0  0  0  0  0  0
   -0.1530   -2.3096   -1.7801 N   0  0  0  0  0  0  0  0  0  0  0  0
    0.7404   -1.3531   -1.9074 N   0  0  0  0  0  0  0  0  0  0  0  0
    0.4428   -0.3404   -1.0898 N   0  0  0  0  0  0  0  0  0  0  0  0
    1.1972    0.9063   -0.9415 C   0  0  0  0  0  0  0  0  0  0  0  0
    2.2203    0.7711    0.0983 C   0  0  0  0  0  0  0  0  0  0  0  0
    2.0718    1.0376    1.4065 N   0  0  0  0  0  0  0  0  0  0  0  0
    3.2390    0.7851    2.0120 N   0  0  0  0  0  0  0  0  0  0  0  0
    4.0825    0.3740    1.0977 N   0  0  0  0  0  0  0  0  0  0  0  0
    3.4783    0.3584   -0.0804 N   0  0  0  0  0  0  0  0  0  0  0  0
   -2.5317    1.0047   -1.0519 H   0  0  0  0  0  0  0  0  0  0  0  0
   -3.4827    0.0591    0.1606 H   0  0  0  0  0  0  0  0  0  0  0  0
   -2.8665    1.6703    0.6334 H   0  0  0  0  0  0  0  0  0  0  0  0
   -0.6839    0.9531    0.9203 H   0  0  0  0  0  0  0  0  0  0  0  0
   -1.7434   -1.6937    1.4599 H   0  0  0  0  0  0  0  0  0  0  0  0
   -2.7010   -0.4125    2.0715 H   0  0  0  0  0  0  0  0  0  0  0  0
   -1.9295   -2.4299   -0.4896 H   0  0  0  0  0  0  0  0  0  0  0  0
    1.6502    1.1663   -1.9072 H   0  0  0  0  0  0  0  0  0  0  0  0
    0.4683    1.7208   -0.7045 H   0  0  0  0  0  0  0  0  0  0  0  0
    3.9456    0.0681   -0.9567 H   0  0  0  0  0  0  0  0  0  0  0  0
  1  2  1  0
  2  3  1  0
  2  4  1  0
  4  5  2  0
  5  6  1  0
  6  7  2  0
  7  8  1  0
  8  9  1  0
  9 10  1  0
 10 11  2  0
 11 12  1  0
 12 13  2  0
 13 14  1  0
  8  4  1  0
 14 10  1  0
  1 15  1  0
  1 16  1  0
  1 17  1  0
  2 18  1  1
  3 19  1  0
  3 20  1  0
  5 21  1  0
  9 22  1  0
  9 23  1  0
 14 24  1  0
M  END
$$$$

     RDKit          3D

 24 25  0  0  0  0  0  0  0  0999 V2000
   -2.7916   -0.2787   -1.0687 C   0  0  0  0  0  0  0  0  0  0  0  0
   -1.4202    0.2553   -0.7145 C   0  0  1  0  0  0  0  0  0  0  0  0
   -1.5817    1.4888    0.0104 N   0  0  0  0  0  0  0  0  0  0  0  0
   -0.6726   -0.7854   -0.0078 C   0  0  0  0  0  0  0  0  0  0  0  0
   -1.0424   -2.1303    0.0822 C   0  0  0  0  0  0  0  0  0  0  0  0
   -0.1048   -2.7653    0.8074 N   0  0  0  0  0  0  0  0  0  0  0  0
    0.7856   -1.8510    1.1385 N   0  0  0  0  0  0  0  0  0  0  0  0
    0.4611   -0.6622    0.6591 N   0  0  0  0  0  0  0  0  0  0  0  0
    1.2362    0.5363    0.8511 C   0  0  0  0  0  0  0  0  0  0  0  0
    2.2319    0.7354   -0.2083 C   0  0  0  0  0  0  0  0  0  0  0  0
    2.0797    1.3969   -1.3594 N   0  0  0  0  0  0  0  0  0  0  0  0
    3.2419    1.3349   -2.0386 N   0  0  0  0  0  0  0  0  0  0  0  0
    4.1039    0.6433   -1.3172 N   0  0  0  0  0  0  0  0  0  0  0  0
    3.4853    0.2789   -0.2016 N   0  0  0  0  0  0  0  0  0  0  0  0
   -3.1270   -0.9347   -0.2368 H   0  0  0  0  0  0  0  0  0  0  0  0
   -3.5149    0.5076   -1.3156 H   0  0  0  0  0  0  0  0  0  0  0  0
   -2.6601   -0.9302   -1.9641 H   0  0  0  0  0  0  0  0  0  0  0  0
   -0.9371    0.5084   -1.7011 H   0  0  0  0  0  0  0  0  0  0  0  0
   -1.8491    2.2384   -0.6661 H   0  0  0  0  0  0  0  0  0  0  0  0
   -2.3649    1.4171    0.6984 H   0  0  0  0  0  0  0  0  0  0  0  0
   -1.9030   -2.6238   -0.3298 H   0  0  0  0  0  0  0  0  0  0  0  0
    0.6160    1.4677    0.8891 H   0  0  0  0  0  0  0  0  0  0  0  0
    1.7976    0.4427    1.8224 H   0  0  0  0  0  0  0  0  0  0  0  0
    3.9301   -0.2901    0.5733 H   0  0  0  0  0  0  0  0  0  0  0  0
  1  2  1  0
  2  3  1  0
  2  4  1  0
  4  5  2  0
  5  6  1  0
  6  7  2  0
  7  8  1  0
  8  9  1  0
  9 10  1  0
 10 11  2  0
 11 12  1  0
 12 13  2  0
 13 14  1  0
  8  4  1  0
 14 10  1  0
  1 15  1  0
  1 16  1  0
  1 17  1  0
  2 18  1  6
  3 19  1  0
  3 20  1  0
  5 21  1  0
  9 22  1  0
  9 23  1  0
 14 24  1  0
M  END
$$$$

     RDKit          3D

 24 25  0  0  0  0  0  0  0  0999 V2000
   -1.3903    0.3817   -1.4962 C   0  0  0  0  0  0  0  0  0  0  0  0
   -1.7035    0.0690   -0.0287 C   0  0  1  0  0  0  0  0  0  0  0  0
   -1.7451   -1.3447    0.2167 N   0  0  0  0  0  0  0  0  0  0  0  0
   -0.7459    0.7655    0.8505 C   0  0  0  0  0  0  0  0  0  0  0  0
   -1.0064    1.9766    1.4891 C   0  0  0  0  0  0  0  0  0  0  0  0
    0.0899    2.2882    2.1967 N   0  0  0  0  0  0  0  0  0  0  0  0
    0.9688    1.3308    2.0063 N   0  0  0  0  0  0  0  0  0  0  0  0
    0.4742    0.3833    1.1806 N   0  0  0  0  0  0  0  0  0  0  0  0
    1.2201   -0.7820    0.7990 C   0  0  0  0  0  0  0  0  0  0  0  0
    2.0264   -0.5744   -0.4142 C   0  0  0  0  0  0  0  0  0  0  0  0
    3.2432   -0.0161   -0.4391 N   0  0  0  0  0  0  0  0  0  0  0  0
    3.6807    0.0030   -1.6950 N   0  0  0  0  0  0  0  0  0  0  0  0
    2.7451   -0.5368   -2.4353 N   0  0  0  0  0  0  0  0  0  0  0  0
    1.7215   -0.8982   -1.6698 N   0  0  0  0  0  0  0  0  0  0  0  0
   -0.4115    0.8975   -1.5713 H   0  0  0  0  0  0  0  0  0  0  0  0
   -1.3971   -0.5271   -2.0998 H   0  0  0  0  0  0  0  0  0  0  0  0
   -2.1264    1.0913   -1.9307 H   0  0  0  0  0  0  0  0  0  0  0  0
   -2.7292    0.5144    0.1537 H   0  0  0  0  0  0  0  0  0  0  0  0
   -2.2971   -1.5734    1.0485 H   0  0  0  0  0  0  0  0  0  0  0  0
   -1.9911   -1.9013   -0.6322 H   0  0  0  0  0  0  0  0  0  0  0  0
   -1.9277    2.5267    1.4040 H   0  0  0  0  0  0  0  0  0  0  0  0
    1.9175   -1.0792    1.6352 H   0  0  0  0  0  0  0  0  0  0  0  0
    0.5407   -1.6347    0.6049 H   0  0  0  0  0  0  0  0  0  0  0  0
    0.8432   -1.3601   -2.0315 H   0  0  0  0  0  0  0  0  0  0  0  0
  1  2  1  0
  2  3  1  0
  2  4  1  0
  4  5  2  0
  5  6  1  0
  6  7  2  0
  7  8  1  0
  8  9  1  0
  9 10  1  0
 10 11  2  0
 11 12  1  0
 12 13  2  0
 13 14  1  0
  8  4  1  0
 14 10  1  0
  1 15  1  0
  1 16  1  0
  1 17  1  0
  2 18  1  1
  3 19  1  0
  3 20  1  0
  5 21  1  0
  9 22  1  0
  9 23  1  0
 14 24  1  0
M  END
$$$$
