
     RDKit          3D

 30 30  0  0  0  0  0  0  0  0999 V2000
    3.5649   -0.9705    0.3882 C   0  0  0  0  0  0  0  0  0  0  0  0
    2.2695   -1.2771   -0.2703 C   0  0  0  0  0  0  0  0  0  0  0  0
    1.1138   -0.4715    0.2480 C   0  0  2  0  0  0  0  0  0  0  0  0
   -0.1285   -0.8071   -0.4262 N   0  0  0  0  0  0  0  0  0  0  0  0
   -1.0260    0.1762    0.1562 C   0  0  2  0  0  0  0  0  0  0  0  0
   -2.2910    0.2127   -0.6598 C   0  0  2  0  0  0  0  0  0  0  0  0
   -3.1795    1.1421   -0.1367 O   0  0  0  0  0  0  0  0  0  0  0  0
   -2.9411   -1.1516   -0.5683 C   0  0  0  0  0  0  0  0  0  0  0  0
   -3.2358   -1.4841    0.7562 O   0  0  0  0  0  0  0  0  0  0  0  0
   -0.2340    1.4373    0.0927 C   0  0  2  0  0  0  0  0  0  0  0  0
   -0.6240    2.3217   -0.8786 O   0  0  0  0  0  0  0  0  0  0  0  0
    1.2288    0.9985   -0.0717 C   0  0  1  0  0  0  0  0  0  0  0  0
    2.0014    1.6928    0.8463 O   0  0  0  0  0  0  0  0  0  0  0  0
    3.7869    0.1076    0.4814 H   0  0  0  0  0  0  0  0  0  0  0  0
    3.6257   -1.4737    1.3691 H   0  0  0  0  0  0  0  0  0  0  0  0
    4.3898   -1.3992   -0.2311 H   0  0  0  0  0  0  0  0  0  0  0  0
    2.2862   -1.1577   -1.3814 H   0  0  0  0  0  0  0  0  0  0  0  0
    2.0315   -2.3460   -0.0920 H   0  0  0  0  0  0  0  0  0  0  0  0
    0.9442   -0.5945    1.3278 H   0  0  0  0  0  0  0  0  0  0  0  0
   -0.0848   -0.6266   -1.4539 H   0  0  0  0  0  0  0  0  0  0  0  0
   -1.2704   -0.1537    1.1789 H   0  0  0  0  0  0  0  0  0  0  0  0
   -2.0622    0.3826   -1.7296 H   0  0  0  0  0  0  0  0  0  0  0  0
   -2.9929    1.3165    0.8226 H   0  0  0  0  0  0  0  0  0  0  0  0
   -2.2645   -1.9571   -0.9403 H   0  0  0  0  0  0  0  0  0  0  0  0
   -3.8527   -1.2179   -1.2108 H   0  0  0  0  0  0  0  0  0  0  0  0
   -3.4015   -0.6517    1.2516 H   0  0  0  0  0  0  0  0  0  0  0  0
   -0.3436    1.9463    1.0939 H   0  0  0  0  0  0  0  0  0  0  0  0
   -0.4400    3.2679   -0.5799 H   0  0  0  0  0  0  0  0  0  0  0  0
    1.5350    1.1763   -1.1105 H   0  0  0  0  0  0  0  0  0  0  0  0
    1.5947    1.5617    1.7282 H   0  0  0  0  0  0  0  0  0  0  0  0
  1  2  1  0
  2  3  1  0
  3  4  1  0
  4  5  1  0
  5  6  1  0
  6  7  1  0
  6  8  1  0
  8  9  1  0
  5 10  1  0
 10 11  1  0
 10 12  1  0
 12 13  1  0
 12  3  1  0
  1 14  1  0
  1 15  1  0
  1 16  1  0
  2 17  1  0
  2 18  1  0
  3 19  1  1
  4 20  1  0
  5 21  1  1
  6 22  1  6
  7 23  1  0
  8 24  1  0
  8 25  1  0
  9 26  1  0
 10 27  1  1
 11 28  1  0
 12 29  1  6
 13 30  1  0
M  END
$$$$

     RDKit          3D

 30 30  0  0  0  0  0  0  0  0999 V2000
    2.9681    1.4437    0.1899 C   0  0  0  0  0  0  0  0  0  0  0  0
    2.4820    0.1333    0.8026 C   0  0  0  0  0  0  0  0  0  0  0  0
    1.3689   -0.3711   -0.0680 C   0  0  2  0  0  0  0  0  0  0  0  0
    0.2582    0.5777   -0.1386 N   0  0  0  0  0  0  0  0  0  0  0  0
   -0.7523   -0.2533   -0.7592 C   0  0  2  0  0  0  0  0  0  0  0  0
   -2.0270    0.4167   -1.0746 C   0  0  2  0  0  0  0  0  0  0  0  0
   -1.7620    1.4693   -1.9645 O   0  0  0  0  0  0  0  0  0  0  0  0
   -2.8113    0.9488    0.0792 C   0  0  0  0  0  0  0  0  0  0  0  0
   -2.1575    1.9354    0.7959 O   0  0  0  0  0  0  0  0  0  0  0  0
   -0.7997   -1.4171    0.1674 C   0  0  2  0  0  0  0  0  0  0  0  0
   -1.4732   -1.1526    1.3461 O   0  0  0  0  0  0  0  0  0  0  0  0
    0.7025   -1.6064    0.4542 C   0  0  1  0  0  0  0  0  0  0  0  0
    1.1395   -2.7685   -0.1728 O   0  0  0  0  0  0  0  0  0  0  0  0
    3.3060    1.1831   -0.8396 H   0  0  0  0  0  0  0  0  0  0  0  0
    2.2039    2.2232    0.2119 H   0  0  0  0  0  0  0  0  0  0  0  0
    3.8503    1.7936    0.7476 H   0  0  0  0  0  0  0  0  0  0  0  0
    3.3202   -0.5728    0.7217 H   0  0  0  0  0  0  0  0  0  0  0  0
    2.2128    0.2521    1.8559 H   0  0  0  0  0  0  0  0  0  0  0  0
    1.7880   -0.5332   -1.0835 H   0  0  0  0  0  0  0  0  0  0  0  0
    0.4930    1.4193   -0.6943 H   0  0  0  0  0  0  0  0  0  0  0  0
   -0.3062   -0.6133   -1.7124 H   0  0  0  0  0  0  0  0  0  0  0  0
   -2.6719   -0.3034   -1.6186 H   0  0  0  0  0  0  0  0  0  0  0  0
   -0.9267    1.2929   -2.4306 H   0  0  0  0  0  0  0  0  0  0  0  0
   -3.7115    1.4725   -0.3724 H   0  0  0  0  0  0  0  0  0  0  0  0
   -3.2560    0.1861    0.7403 H   0  0  0  0  0  0  0  0  0  0  0  0
   -2.8279    2.3717    1.3821 H   0  0  0  0  0  0  0  0  0  0  0  0
   -1.1814   -2.2991   -0.3749 H   0  0  0  0  0  0  0  0  0  0  0  0
   -1.6919   -2.0396    1.7702 H   0  0  0  0  0  0  0  0  0  0  0  0
    0.8647   -1.7237    1.5473 H   0  0  0  0  0  0  0  0  0  0  0  0
    1.3984   -3.4654    0.4916 H   0  0  0  0  0  0  0  0  0  0  0  0
  1  2  1  0
  2  3  1  0
  3  4  1  0
  4  5  1  0
  5  6  1  0
  6  7  1  0
  6  8  1  0
  8  9  1  0
  5 10  1  0
 10 11  1  0
 10 12  1  0
 12 13  1  0
 12  3  1  0
  1 14  1  0
  1 15  1  0
  1 16  1  0
  2 17  1  0
  2 18  1  0
  3 19  1  6
  4 20  1  0
  5 21  1  6
  6 22  1  6
  7 23  1  0
  8 24  1  0
  8 25  1  0
  9 26  1  0
 10 27  1  6
 11 28  1  0
 12 29  1  1
 13 30  1  0
M  END
$$$$

     RDKit          3D

 30 30  0  0  0  0  0  0  0  0999 V2000
    3.1762    1.0171    0.4931 C   0  0  0  0  0  0  0  0  0  0  0  0
    2.8723    0.2620   -0.7760 C   0  0  0  0  0  0  0  0  0  0  0  0
    1.4652   -0.2217   -0.8623 C   0  0  2  0  0  0  0  0  0  0  0  0
    0.4884    0.8525   -0.8131 N   0  0  0  0  0  0  0  0  0  0  0  0
   -0.7611    0.0695   -0.7856 C   0  0  2  0  0  0  0  0  0  0  0  0
   -1.8979    0.9075   -0.2526 C   0  0  2  0  0  0  0  0  0  0  0  0
   -1.6561    1.3499    1.0448 O   0  0  0  0  0  0  0  0  0  0  0  0
   -3.1767    0.1209   -0.3768 C   0  0  0  0  0  0  0  0  0  0  0  0
   -4.2878    0.8845   -0.0032 O   0  0  0  0  0  0  0  0  0  0  0  0
   -0.4640   -1.1112    0.1028 C   0  0  2  0  0  0  0  0  0  0  0  0
   -1.1467   -1.0690    1.3148 O   0  0  0  0  0  0  0  0  0  0  0  0
    1.0364   -1.0661    0.3045 C   0  0  1  0  0  0  0  0  0  0  0  0
    1.6046   -2.3355    0.2852 O   0  0  0  0  0  0  0  0  0  0  0  0
    4.2288    1.4094    0.3738 H   0  0  0  0  0  0  0  0  0  0  0  0
    2.5472    1.8986    0.6502 H   0  0  0  0  0  0  0  0  0  0  0  0
    3.2309    0.3447    1.3878 H   0  0  0  0  0  0  0  0  0  0  0  0
    3.0729    0.9266   -1.6195 H   0  0  0  0  0  0  0  0  0  0  0  0
    3.5461   -0.5948   -0.8397 H   0  0  0  0  0  0  0  0  0  0  0  0
    1.3397   -0.7939   -1.7812 H   0  0  0  0  0  0  0  0  0  0  0  0
    0.5560    1.2527    0.1701 H   0  0  0  0  0  0  0  0  0  0  0  0
   -1.0028   -0.2095   -1.8259 H   0  0  0  0  0  0  0  0  0  0  0  0
   -1.9984    1.8348   -0.8653 H   0  0  0  0  0  0  0  0  0  0  0  0
   -2.4552    1.1600    1.6275 H   0  0  0  0  0  0  0  0  0  0  0  0
   -3.2010   -0.7818    0.2639 H   0  0  0  0  0  0  0  0  0  0  0  0
   -3.3233   -0.1935   -1.4165 H   0  0  0  0  0  0  0  0  0  0  0  0
   -4.7155    1.2846   -0.8172 H   0  0  0  0  0  0  0  0  0  0  0  0
   -0.7203   -2.0321   -0.4869 H   0  0  0  0  0  0  0  0  0  0  0  0
   -0.6462   -1.6132    1.9629 H   0  0  0  0  0  0  0  0  0  0  0  0
    1.2108   -0.5505    1.2783 H   0  0  0  0  0  0  0  0  0  0  0  0
    1.0774   -3.0025    0.7633 H   0  0  0  0  0  0  0  0  0  0  0  0
  1  2  1  0
  2  3  1  0
  3  4  1  0
  4  5  1  0
  5  6  1  0
  6  7  1  0
  6  8  1  0
  8  9  1  0
  5 10  1  0
 10 11  1  0
 10 12  1  0
 12 13  1  0
 12  3  1  0
  1 14  1  0
  1 15  1  0
  1 16  1  0
  2 17  1  0
  2 18  1  0
  3 19  1  6
  4 20  1  0
  5 21  1  6
  6 22  1  6
  7 23  1  0
  8 24  1  0
  8 25  1  0
  9 26  1  0
 10 27  1  6
 11 28  1  0
 12 29  1  1
 13 30  1  0
M  END
$$$$

     RDKit          3D

 30 30  0  0  0  0  0  0  0  0999 V2000
   -2.7693    2.1207    0.1679 C   0  0  0  0  0  0  0  0  0  0  0  0
   -2.5422    0.7772   -0.4392 C   0  0  0  0  0  0  0  0  0  0  0  0
   -1.4279    0.0807    0.2633 C   0  0  2  0  0  0  0  0  0  0  0  0
   -0.1713    0.7566    0.2214 N   0  0  0  0  0  0  0  0  0  0  0  0
    0.7971   -0.2316    0.5881 C   0  0  2  0  0  0  0  0  0  0  0  0
    2.0261   -0.2113   -0.2886 C   0  0  2  0  0  0  0  0  0  0  0  0
    2.8844   -1.2103    0.1661 O   0  0  0  0  0  0  0  0  0  0  0  0
    2.7306    1.1238   -0.2605 C   0  0  0  0  0  0  0  0  0  0  0  0
    3.1482    1.4785    0.9968 O   0  0  0  0  0  0  0  0  0  0  0  0
    0.1537   -1.5905    0.4199 C   0  0  2  0  0  0  0  0  0  0  0  0
    0.9804   -2.4963   -0.1953 O   0  0  0  0  0  0  0  0  0  0  0  0
   -1.0568   -1.2263   -0.4494 C   0  0  1  0  0  0  0  0  0  0  0  0
   -2.0515   -2.1616   -0.3842 O   0  0  0  0  0  0  0  0  0  0  0  0
   -2.9110    1.9846    1.2593 H   0  0  0  0  0  0  0  0  0  0  0  0
   -3.7704    2.4834   -0.2078 H   0  0  0  0  0  0  0  0  0  0  0  0
   -2.0397    2.8857   -0.1024 H   0  0  0  0  0  0  0  0  0  0  0  0
   -3.4602    0.1701   -0.3006 H   0  0  0  0  0  0  0  0  0  0  0  0
   -2.3460    0.8971   -1.5223 H   0  0  0  0  0  0  0  0  0  0  0  0
   -1.7242   -0.1679    1.2864 H   0  0  0  0  0  0  0  0  0  0  0  0
   -0.1611    1.5970    0.8529 H   0  0  0  0  0  0  0  0  0  0  0  0
    1.1427   -0.0872    1.6535 H   0  0  0  0  0  0  0  0  0  0  0  0
    1.7142   -0.4907   -1.3142 H   0  0  0  0  0  0  0  0  0  0  0  0
    3.8173   -0.9452    0.1810 H   0  0  0  0  0  0  0  0  0  0  0  0
    3.5609    1.0566   -1.0026 H   0  0  0  0  0  0  0  0  0  0  0  0
    2.0406    1.8965   -0.6518 H   0  0  0  0  0  0  0  0  0  0  0  0
    3.6840    0.7462    1.3884 H   0  0  0  0  0  0  0  0  0  0  0  0
   -0.2319   -1.9743    1.4019 H   0  0  0  0  0  0  0  0  0  0  0  0
    0.5304   -3.3606   -0.2286 H   0  0  0  0  0  0  0  0  0  0  0  0
   -0.6643   -1.0172   -1.4498 H   0  0  0  0  0  0  0  0  0  0  0  0
   -1.8825   -2.8835    0.2446 H   0  0  0  0  0  0  0  0  0  0  0  0
  1  2  1  0
  2  3  1  0
  3  4  1  0
  4  5  1  0
  5  6  1  0
  6  7  1  0
  6  8  1  0
  8  9  1  0
  5 10  1  0
 10 11  1  0
 10 12  1  0
 12 13  1  0
 12  3  1  0
  1 14  1  0
  1 15  1  0
  1 16  1  0
  2 17  1  0
  2 18  1  0
  3 19  1  1
  4 20  1  0
  5 21  1  1
  6 22  1  6
  7 23  1  0
  8 24  1  0
  8 25  1  0
  9 26  1  0
 10 27  1  1
 11 28  1  0
 12 29  1  6
 13 30  1  0
M  END
$$$$

     RDKit          3D

 30 30  0  0  0  0  0  0  0  0999 V2000
   -3.7721   -0.0924    0.2783 C   0  0  0  0  0  0  0  0  0  0  0  0
   -2.4645   -0.4956    0.8780 C   0  0  0  0  0  0  0  0  0  0  0  0
   -1.3610   -0.6504   -0.1256 C   0  0  2  0  0  0  0  0  0  0  0  0
   -0.1591   -1.0444    0.6148 N   0  0  0  0  0  0  0  0  0  0  0  0
    0.9486   -0.4801   -0.1481 C   0  0  2  0  0  0  0  0  0  0  0  0
    2.1864   -0.4340    0.7175 C   0  0  2  0  0  0  0  0  0  0  0  0
    2.0244    0.3321    1.8443 O   0  0  0  0  0  0  0  0  0  0  0  0
    3.3318    0.1063   -0.1295 C   0  0  0  0  0  0  0  0  0  0  0  0
    3.5004   -0.6659   -1.2720 O   0  0  0  0  0  0  0  0  0  0  0  0
    0.4332    0.8759   -0.5056 C   0  0  2  0  0  0  0  0  0  0  0  0
    0.5811    1.8018    0.5199 O   0  0  0  0  0  0  0  0  0  0  0  0
   -1.0137    0.6126   -0.8428 C   0  0  1  0  0  0  0  0  0  0  0  0
   -1.0643    0.3935   -2.2330 O   0  0  0  0  0  0  0  0  0  0  0  0
   -3.9822    0.9891    0.3646 H   0  0  0  0  0  0  0  0  0  0  0  0
   -4.5850   -0.6080    0.8477 H   0  0  0  0  0  0  0  0  0  0  0  0
   -3.8692   -0.4656   -0.7721 H   0  0  0  0  0  0  0  0  0  0  0  0
   -2.5756   -1.4655    1.4051 H   0  0  0  0  0  0  0  0  0  0  0  0
   -2.1804    0.2730    1.6318 H   0  0  0  0  0  0  0  0  0  0  0  0
   -1.5831   -1.4635   -0.8259 H   0  0  0  0  0  0  0  0  0  0  0  0
   -0.1791   -0.5885    1.5684 H   0  0  0  0  0  0  0  0  0  0  0  0
    1.1078   -1.0829   -1.0410 H   0  0  0  0  0  0  0  0  0  0  0  0
    2.4375   -1.4696    1.0134 H   0  0  0  0  0  0  0  0  0  0  0  0
    2.6827    1.0750    1.8343 H   0  0  0  0  0  0  0  0  0  0  0  0
    4.2903    0.0445    0.4439 H   0  0  0  0  0  0  0  0  0  0  0  0
    3.1191    1.1613   -0.3599 H   0  0  0  0  0  0  0  0  0  0  0  0
    3.2938   -1.6114   -1.0877 H   0  0  0  0  0  0  0  0  0  0  0  0
    1.0068    1.2490   -1.3918 H   0  0  0  0  0  0  0  0  0  0  0  0
   -0.1102    2.4992    0.3732 H   0  0  0  0  0  0  0  0  0  0  0  0
   -1.6730    1.4644   -0.5949 H   0  0  0  0  0  0  0  0  0  0  0  0
   -0.3714   -0.2599   -2.4964 H   0  0  0  0  0  0  0  0  0  0  0  0
  1  2  1  0
  2  3  1  0
  3  4  1  0
  4  5  1  0
  5  6  1  0
  6  7  1  0
  6  8  1  0
  8  9  1  0
  5 10  1  0
 10 11  1  0
 10 12  1  0
 12 13  1  0
 12  3  1  0
  1 14  1  0
  1 15  1  0
  1 16  1  0
  2 17  1  0
  2 18  1  0
  3 19  1  6
  4 20  1  0
  5 21  1  6
  6 22  1  1
  7 23  1  0
  8 24  1  0
  8 25  1  0
  9 26  1  0
 10 27  1  6
 11 28  1  0
 12 29  1  6
 13 30  1  0
M  END
$$$$

     RDKit          3D

 30 30  0  0  0  0  0  0  0  0999 V2000
   -3.2312    1.2471   -0.1786 C   0  0  0  0  0  0  0  0  0  0  0  0
   -2.0292    1.1100    0.7198 C   0  0  0  0  0  0  0  0  0  0  0  0
   -1.3734   -0.2361    0.6357 C   0  0  2  0  0  0  0  0  0  0  0  0
   -0.2425   -0.2266    1.5436 N   0  0  0  0  0  0  0  0  0  0  0  0
    0.9051   -0.7506    0.8131 C   0  0  2  0  0  0  0  0  0  0  0  0
    1.8669    0.3309    0.4428 C   0  0  2  0  0  0  0  0  0  0  0  0
    1.3489    1.3170   -0.3807 O   0  0  0  0  0  0  0  0  0  0  0  0
    3.1638   -0.1948   -0.0972 C   0  0  0  0  0  0  0  0  0  0  0  0
    4.0847    0.8865   -0.1514 O   0  0  0  0  0  0  0  0  0  0  0  0
    0.3152   -1.5144   -0.3173 C   0  0  2  0  0  0  0  0  0  0  0  0
    1.1177   -1.8033   -1.3742 O   0  0  0  0  0  0  0  0  0  0  0  0
   -0.8577   -0.5957   -0.7063 C   0  0  1  0  0  0  0  0  0  0  0  0
   -1.7108   -1.4016   -1.4493 O   0  0  0  0  0  0  0  0  0  0  0  0
   -3.7983    2.1363    0.1706 H   0  0  0  0  0  0  0  0  0  0  0  0
   -2.9699    1.4265   -1.2267 H   0  0  0  0  0  0  0  0  0  0  0  0
   -3.9253    0.3800   -0.0458 H   0  0  0  0  0  0  0  0  0  0  0  0
   -1.3560    1.9457    0.5374 H   0  0  0  0  0  0  0  0  0  0  0  0
   -2.4103    1.2158    1.7708 H   0  0  0  0  0  0  0  0  0  0  0  0
   -2.1052   -1.0085    0.9514 H   0  0  0  0  0  0  0  0  0  0  0  0
    0.0169    0.7567    1.8253 H   0  0  0  0  0  0  0  0  0  0  0  0
    1.4297   -1.4276    1.5182 H   0  0  0  0  0  0  0  0  0  0  0  0
    2.1627    0.8726    1.4071 H   0  0  0  0  0  0  0  0  0  0  0  0
    1.8333    1.2862   -1.2644 H   0  0  0  0  0  0  0  0  0  0  0  0
    3.5786   -0.9642    0.5829 H   0  0  0  0  0  0  0  0  0  0  0  0
    3.0216   -0.5881   -1.1200 H   0  0  0  0  0  0  0  0  0  0  0  0
    3.5838    1.7333   -0.1230 H   0  0  0  0  0  0  0  0  0  0  0  0
   -0.1619   -2.4414    0.1269 H   0  0  0  0  0  0  0  0  0  0  0  0
    0.8397   -2.7056   -1.7303 H   0  0  0  0  0  0  0  0  0  0  0  0
   -0.4874    0.2287   -1.3191 H   0  0  0  0  0  0  0  0  0  0  0  0
   -2.6097   -1.0147   -1.5613 H   0  0  0  0  0  0  0  0  0  0  0  0
  1  2  1  0
  2  3  1  0
  3  4  1  0
  4  5  1  0
  5  6  1  0
  6  7  1  0
  6  8  1  0
  8  9  1  0
  5 10  1  0
 10 11  1  0
 10 12  1  0
 12 13  1  0
 12  3  1  0
  1 14  1  0
  1 15  1  0
  1 16  1  0
  2 17  1  0
  2 18  1  0
  3 19  1  1
  4 20  1  0
  5 21  1  1
  6 22  1  1
  7 23  1  0
  8 24  1  0
  8 25  1  0
  9 26  1  0
 10 27  1  1
 11 28  1  0
 12 29  1  6
 13 30  1  0
M  END
$$$$

     RDKit          3D

 30 30  0  0  0  0  0  0  0  0999 V2000
   -2.9373    1.0816    1.1205 C   0  0  0  0  0  0  0  0  0  0  0  0
   -2.5334    0.2759   -0.0929 C   0  0  0  0  0  0  0  0  0  0  0  0
   -1.3274   -0.5800    0.1615 C   0  0  2  0  0  0  0  0  0  0  0  0
   -0.1638    0.1845    0.5369 N   0  0  0  0  0  0  0  0  0  0  0  0
    0.9295   -0.4163   -0.1915 C   0  0  2  0  0  0  0  0  0  0  0  0
    2.1287    0.4614   -0.3161 C   0  0  2  0  0  0  0  0  0  0  0  0
    3.1019   -0.2315   -1.0334 O   0  0  0  0  0  0  0  0  0  0  0  0
    2.6717    0.9650    0.9748 C   0  0  0  0  0  0  0  0  0  0  0  0
    3.1372   -0.0257    1.8164 O   0  0  0  0  0  0  0  0  0  0  0  0
    0.2796   -0.6159   -1.5475 C   0  0  2  0  0  0  0  0  0  0  0  0
   -0.0050    0.6460   -2.0607 O   0  0  0  0  0  0  0  0  0  0  0  0
   -0.9960   -1.3102   -1.1142 C   0  0  1  0  0  0  0  0  0  0  0  0
   -0.6663   -2.6247   -0.8048 O   0  0  0  0  0  0  0  0  0  0  0  0
   -3.5820    1.9234    0.7363 H   0  0  0  0  0  0  0  0  0  0  0  0
   -2.0838    1.5119    1.6514 H   0  0  0  0  0  0  0  0  0  0  0  0
   -3.6069    0.4843    1.7849 H   0  0  0  0  0  0  0  0  0  0  0  0
   -2.4632    0.9110   -0.9757 H   0  0  0  0  0  0  0  0  0  0  0  0
   -3.3877   -0.4331   -0.2848 H   0  0  0  0  0  0  0  0  0  0  0  0
   -1.5880   -1.3192    0.9493 H   0  0  0  0  0  0  0  0  0  0  0  0
   -0.0373    0.1397    1.5641 H   0  0  0  0  0  0  0  0  0  0  0  0
    1.1996   -1.4158    0.1871 H   0  0  0  0  0  0  0  0  0  0  0  0
    1.8675    1.3521   -0.9397 H   0  0  0  0  0  0  0  0  0  0  0  0
    3.8858    0.3373   -1.2295 H   0  0  0  0  0  0  0  0  0  0  0  0
    1.9148    1.6255    1.4650 H   0  0  0  0  0  0  0  0  0  0  0  0
    3.5337    1.6291    0.7456 H   0  0  0  0  0  0  0  0  0  0  0  0
    2.4412   -0.6002    2.1963 H   0  0  0  0  0  0  0  0  0  0  0  0
    0.8861   -1.2272   -2.2235 H   0  0  0  0  0  0  0  0  0  0  0  0
   -0.1298    1.3255   -1.3523 H   0  0  0  0  0  0  0  0  0  0  0  0
   -1.7894   -1.2339   -1.8759 H   0  0  0  0  0  0  0  0  0  0  0  0
   -0.6799   -2.8207    0.1525 H   0  0  0  0  0  0  0  0  0  0  0  0
  1  2  1  0
  2  3  1  0
  3  4  1  0
  4  5  1  0
  5  6  1  0
  6  7  1  0
  6  8  1  0
  8  9  1  0
  5 10  1  0
 10 11  1  0
 10 12  1  0
 12 13  1  0
 12  3  1  0
  1 14  1  0
  1 15  1  0
  1 16  1  0
  2 17  1  0
  2 18  1  0
  3 19  1  1
  4 20  1  0
  5 21  1  1
  6 22  1  6
  7 23  1  0
  8 24  1  0
  8 25  1  0
  9 26  1  0
 10 27  1  6
 11 28  1  0
 12 29  1  6
 13 30  1  0
M  END
$$$$

     RDKit          3D

 30 30  0  0  0  0  0  0  0  0999 V2000
   -3.7015    0.5422    0.0450 C   0  0  0  0  0  0  0  0  0  0  0  0
   -2.4179    1.2775    0.4153 C   0  0  0  0  0  0  0  0  0  0  0  0
   -1.3200    0.2689    0.3741 C   0  0  2  0  0  0  0  0  0  0  0  0
   -0.0137    0.8210    0.7089 N   0  0  0  0  0  0  0  0  0  0  0  0
    0.8218   -0.3284    0.4745 C   0  0  2  0  0  0  0  0  0  0  0  0
    2.2483   -0.0103    0.1870 C   0  0  2  0  0  0  0  0  0  0  0  0
    2.9243   -1.2132   -0.0162 O   0  0  0  0  0  0  0  0  0  0  0  0
    2.9599    0.7627    1.2275 C   0  0  0  0  0  0  0  0  0  0  0  0
    4.2615    1.0060    0.7855 O   0  0  0  0  0  0  0  0  0  0  0  0
    0.2074   -1.0860   -0.6851 C   0  0  2  0  0  0  0  0  0  0  0  0
    1.0726   -1.1763   -1.7673 O   0  0  0  0  0  0  0  0  0  0  0  0
   -1.0149   -0.2275   -1.0226 C   0  0  1  0  0  0  0  0  0  0  0  0
   -2.0378   -0.9882   -1.5552 O   0  0  0  0  0  0  0  0  0  0  0  0
   -4.5817    0.9844    0.5518 H   0  0  0  0  0  0  0  0  0  0  0  0
   -3.8253    0.4699   -1.0529 H   0  0  0  0  0  0  0  0  0  0  0  0
   -3.6492   -0.5162    0.4168 H   0  0  0  0  0  0  0  0  0  0  0  0
   -2.2940    2.0688   -0.3382 H   0  0  0  0  0  0  0  0  0  0  0  0
   -2.5636    1.7542    1.3819 H   0  0  0  0  0  0  0  0  0  0  0  0
   -1.5044   -0.6081    1.0033 H   0  0  0  0  0  0  0  0  0  0  0  0
    0.1532    1.5779   -0.0209 H   0  0  0  0  0  0  0  0  0  0  0  0
    0.7371   -0.9786    1.3713 H   0  0  0  0  0  0  0  0  0  0  0  0
    2.3160    0.5424   -0.7852 H   0  0  0  0  0  0  0  0  0  0  0  0
    3.0140   -1.6454    0.8891 H   0  0  0  0  0  0  0  0  0  0  0  0
    3.0763    0.1201    2.1464 H   0  0  0  0  0  0  0  0  0  0  0  0
    2.5206    1.7407    1.4719 H   0  0  0  0  0  0  0  0  0  0  0  0
    4.7157    0.1243    0.5977 H   0  0  0  0  0  0  0  0  0  0  0  0
   -0.1952   -2.0754   -0.3821 H   0  0  0  0  0  0  0  0  0  0  0  0
    1.0256   -0.3558   -2.3187 H   0  0  0  0  0  0  0  0  0  0  0  0
   -0.7068    0.6106   -1.6526 H   0  0  0  0  0  0  0  0  0  0  0  0
   -2.2283   -0.6548   -2.4510 H   0  0  0  0  0  0  0  0  0  0  0  0
  1  2  1  0
  2  3  1  0
  3  4  1  0
  4  5  1  0
  5  6  1  0
  6  7  1  0
  6  8  1  0
  8  9  1  0
  5 10  1  0
 10 11  1  0
 10 12  1  0
 12 13  1  0
 12  3  1  0
  1 14  1  0
  1 15  1  0
  1 16  1  0
  2 17  1  0
  2 18  1  0
  3 19  1  1
  4 20  1  0
  5 21  1  1
  6 22  1  6
  7 23  1  0
  8 24  1  0
  8 25  1  0
  9 26  1  0
 10 27  1  1
 11 28  1  0
 12 29  1  6
 13 30  1  0
M  END
$$$$
