
     RDKit          3D

 25 25  0  0  0  0  0  0  0  0999 V2000
    3.0060   -0.6303   -0.3600 C   0  0  0  0  0  0  0  0  0  0  0  0
    2.2582    0.3625    0.3146 O   0  0  0  0  0  0  0  0  0  0  0  0
    0.9775    0.3033   -0.1695 C   0  0  2  0  0  0  0  0  0  0  0  0
    0.5114    1.5846   -0.7698 C   0  0  0  0  0  0  0  0  0  0  0  0
   -0.7930    1.7332   -0.9390 C   0  0  0  0  0  0  0  0  0  0  0  0
   -1.8146    0.7375   -0.5827 C   0  0  2  0  0  0  0  0  0  0  0  0
   -2.8141    1.4044    0.1553 O   0  0  0  0  0  0  0  0  0  0  0  0
   -1.3115   -0.4070    0.2229 C   0  0  1  0  0  0  0  0  0  0  0  0
   -1.1030   -1.5945   -0.6003 N   0  0  0  0  0  0  0  0  0  0  0  0
   -0.0433   -0.0169    0.9263 C   0  0  1  0  0  0  0  0  0  0  0  0
    0.4446   -1.0101    1.8392 N   0  0  0  0  0  0  0  0  0  0  0  0
    4.0651   -0.6228    0.0016 H   0  0  0  0  0  0  0  0  0  0  0  0
    2.9539   -0.3504   -1.4336 H   0  0  0  0  0  0  0  0  0  0  0  0
    2.5919   -1.6284   -0.1566 H   0  0  0  0  0  0  0  0  0  0  0  0
    0.8421   -0.4760   -0.9409 H   0  0  0  0  0  0  0  0  0  0  0  0
    1.2538    2.3292   -1.0380 H   0  0  0  0  0  0  0  0  0  0  0  0
   -1.1292    2.6669   -1.3762 H   0  0  0  0  0  0  0  0  0  0  0  0
   -2.2908    0.3356   -1.5243 H   0  0  0  0  0  0  0  0  0  0  0  0
   -3.1310    0.8249    0.8762 H   0  0  0  0  0  0  0  0  0  0  0  0
   -2.0564   -0.6809    0.9845 H   0  0  0  0  0  0  0  0  0  0  0  0
   -1.5468   -2.4308   -0.2000 H   0  0  0  0  0  0  0  0  0  0  0  0
   -1.3530   -1.4066   -1.5823 H   0  0  0  0  0  0  0  0  0  0  0  0
   -0.2456    0.9359    1.4688 H   0  0  0  0  0  0  0  0  0  0  0  0
    1.1108   -0.5951    2.5069 H   0  0  0  0  0  0  0  0  0  0  0  0
   -0.3829   -1.3684    2.3768 H   0  0  0  0  0  0  0  0  0  0  0  0
  1  2  1  0
  2  3  1  0
  3  4  1  0
  4  5  2  0
  5  6  1  0
  6  7  1  0
  6  8  1  0
  8  9  1  0
  8 10  1  0
 10 11  1  0
 10  3  1  0
  1 12  1  0
  1 13  1  0
  1 14  1  0
  3 15  1  6
  4 16  1  0
  5 17  1  0
  6 18  1  6
  7 19  1  0
  8 20  1  1
  9 21  1  0
  9 22  1  0
 10 23  1  1
 11 24  1  0
 11 25  1  0
M  END
$$$$

     RDKit          3D

 25 25  0  0  0  0  0  0  0  0999 V2000
    3.2266    0.3628   -0.1238 C   0  0  0  0  0  0  0  0  0  0  0  0
    2.1664    0.3596    0.8030 O   0  0  0  0  0  0  0  0  0  0  0  0
    0.9516    0.4533    0.1586 C   0  0  2  0  0  0  0  0  0  0  0  0
    0.2340    1.6881    0.6195 C   0  0  0  0  0  0  0  0  0  0  0  0
   -1.0378    1.7949    0.2500 C   0  0  0  0  0  0  0  0  0  0  0  0
   -1.5947    0.6849   -0.5711 C   0  0  2  0  0  0  0  0  0  0  0  0
   -2.9611    0.7819   -0.7217 O   0  0  0  0  0  0  0  0  0  0  0  0
   -1.3091   -0.6016    0.2057 C   0  0  1  0  0  0  0  0  0  0  0  0
   -1.8804   -1.7325   -0.5071 N   0  0  0  0  0  0  0  0  0  0  0  0
    0.1393   -0.7757    0.5127 C   0  0  1  0  0  0  0  0  0  0  0  0
    0.7492   -1.9004   -0.1161 N   0  0  0  0  0  0  0  0  0  0  0  0
    3.0688   -0.5088   -0.7740 H   0  0  0  0  0  0  0  0  0  0  0  0
    4.1811    0.2628    0.4325 H   0  0  0  0  0  0  0  0  0  0  0  0
    3.2154    1.2994   -0.7050 H   0  0  0  0  0  0  0  0  0  0  0  0
    1.1307    0.5077   -0.9408 H   0  0  0  0  0  0  0  0  0  0  0  0
    0.7347    2.4329    1.2134 H   0  0  0  0  0  0  0  0  0  0  0  0
   -1.6110    2.6643    0.5515 H   0  0  0  0  0  0  0  0  0  0  0  0
   -1.0802    0.6759   -1.5487 H   0  0  0  0  0  0  0  0  0  0  0  0
   -3.3232    1.4998   -0.1183 H   0  0  0  0  0  0  0  0  0  0  0  0
   -1.9037   -0.5068    1.1486 H   0  0  0  0  0  0  0  0  0  0  0  0
   -2.4783   -1.4119   -1.3032 H   0  0  0  0  0  0  0  0  0  0  0  0
   -2.4479   -2.3462    0.1214 H   0  0  0  0  0  0  0  0  0  0  0  0
    0.2613   -0.9154    1.6268 H   0  0  0  0  0  0  0  0  0  0  0  0
    0.3922   -2.1770   -1.0183 H   0  0  0  0  0  0  0  0  0  0  0  0
    1.1761   -2.5919    0.4851 H   0  0  0  0  0  0  0  0  0  0  0  0
  1  2  1  0
  2  3  1  0
  3  4  1  0
  4  5  2  0
  5  6  1  0
  6  7  1  0
  6  8  1  0
  8  9  1  0
  8 10  1  0
 10 11  1  0
 10  3  1  0
  1 12  1  0
  1 13  1  0
  1 14  1  0
  3 15  1  6
  4 16  1  0
  5 17  1  0
  6 18  1  6
  7 19  1  0
  8 20  1  1
  9 21  1  0
  9 22  1  0
 10 23  1  1
 11 24  1  0
 11 25  1  0
M  END
$$$$

     RDKit          3D

 25 25  0  0  0  0  0  0  0  0999 V2000
    2.9155   -0.4733   -0.6721 C   0  0  0  0  0  0  0  0  0  0  0  0
    1.6097   -0.2691   -1.0594 O   0  0  0  0  0  0  0  0  0  0  0  0
    0.7435   -0.3488    0.0364 C   0  0  2  0  0  0  0  0  0  0  0  0
   -0.1477   -1.4893   -0.1758 C   0  0  0  0  0  0  0  0  0  0  0  0
   -1.4207   -1.4152   -0.5512 C   0  0  0  0  0  0  0  0  0  0  0  0
   -1.9507   -0.0182   -0.7655 C   0  0  2  0  0  0  0  0  0  0  0  0
   -1.2888    0.4684   -1.8916 O   0  0  0  0  0  0  0  0  0  0  0  0
   -1.4179    0.7855    0.4280 C   0  0  1  0  0  0  0  0  0  0  0  0
   -1.6731    0.1015    1.6701 N   0  0  0  0  0  0  0  0  0  0  0  0
    0.0632    0.9712    0.1758 C   0  0  1  0  0  0  0  0  0  0  0  0
    0.5973    1.6966    1.3124 N   0  0  0  0  0  0  0  0  0  0  0  0
    3.5581   -0.3993   -1.5781 H   0  0  0  0  0  0  0  0  0  0  0  0
    3.2408    0.2916    0.0480 H   0  0  0  0  0  0  0  0  0  0  0  0
    3.0100   -1.5118   -0.2971 H   0  0  0  0  0  0  0  0  0  0  0  0
    1.3507   -0.5625    0.9637 H   0  0  0  0  0  0  0  0  0  0  0  0
    0.2465   -2.4879   -0.0182 H   0  0  0  0  0  0  0  0  0  0  0  0
   -2.0577   -2.2691   -0.7013 H   0  0  0  0  0  0  0  0  0  0  0  0
   -3.0348    0.0109   -0.8362 H   0  0  0  0  0  0  0  0  0  0  0  0
   -1.0896   -0.2588   -2.5427 H   0  0  0  0  0  0  0  0  0  0  0  0
   -1.9691    1.7264    0.4375 H   0  0  0  0  0  0  0  0  0  0  0  0
   -1.0025    0.2962    2.4142 H   0  0  0  0  0  0  0  0  0  0  0  0
   -2.0003   -0.8615    1.5700 H   0  0  0  0  0  0  0  0  0  0  0  0
    0.1429    1.5805   -0.7693 H   0  0  0  0  0  0  0  0  0  0  0  0
    1.5922    1.9441    1.2203 H   0  0  0  0  0  0  0  0  0  0  0  0
   -0.0176    2.4921    1.5819 H   0  0  0  0  0  0  0  0  0  0  0  0
  1  2  1  0
  2  3  1  0
  3  4  1  0
  4  5  2  0
  5  6  1  0
  6  7  1  0
  6  8  1  0
  8  9  1  0
  8 10  1  0
 10 11  1  0
 10  3  1  0
  1 12  1  0
  1 13  1  0
  1 14  1  0
  3 15  1  1
  4 16  1  0
  5 17  1  0
  6 18  1  6
  7 19  1  0
  8 20  1  1
  9 21  1  0
  9 22  1  0
 10 23  1  6
 11 24  1  0
 11 25  1  0
M  END
$$$$

     RDKit          3D

 25 25  0  0  0  0  0  0  0  0999 V2000
    3.1790   -0.2704    0.0169 C   0  0  0  0  0  0  0  0  0  0  0  0
    2.2125    0.6689    0.3655 O   0  0  0  0  0  0  0  0  0  0  0  0
    0.9994    0.2797   -0.1541 C   0  0  2  0  0  0  0  0  0  0  0  0
    0.5191    1.3826   -1.0530 C   0  0  0  0  0  0  0  0  0  0  0  0
   -0.7311    1.2439   -1.5053 C   0  0  0  0  0  0  0  0  0  0  0  0
   -1.5082    0.0394   -1.0850 C   0  0  2  0  0  0  0  0  0  0  0  0
   -2.8328    0.1802   -1.4457 O   0  0  0  0  0  0  0  0  0  0  0  0
   -1.4284   -0.0052    0.4341 C   0  0  1  0  0  0  0  0  0  0  0  0
   -2.0439   -1.2508    0.8804 N   0  0  0  0  0  0  0  0  0  0  0  0
   -0.0272    0.1033    0.9469 C   0  0  1  0  0  0  0  0  0  0  0  0
    0.2591   -1.0288    1.7842 N   0  0  0  0  0  0  0  0  0  0  0  0
    4.1564    0.0431    0.4355 H   0  0  0  0  0  0  0  0  0  0  0  0
    3.2519   -0.4019   -1.0833 H   0  0  0  0  0  0  0  0  0  0  0  0
    2.8700   -1.2294    0.5136 H   0  0  0  0  0  0  0  0  0  0  0  0
    1.1081   -0.6691   -0.7078 H   0  0  0  0  0  0  0  0  0  0  0  0
    1.1492    2.2275   -1.3111 H   0  0  0  0  0  0  0  0  0  0  0  0
   -1.1197    2.0148   -2.1564 H   0  0  0  0  0  0  0  0  0  0  0  0
   -1.0819   -0.8838   -1.5253 H   0  0  0  0  0  0  0  0  0  0  0  0
   -3.1474    1.0845   -1.2874 H   0  0  0  0  0  0  0  0  0  0  0  0
   -2.0503    0.8359    0.8159 H   0  0  0  0  0  0  0  0  0  0  0  0
   -2.6024   -1.0805    1.7465 H   0  0  0  0  0  0  0  0  0  0  0  0
   -2.6845   -1.6469    0.1327 H   0  0  0  0  0  0  0  0  0  0  0  0
    0.0588    1.0199    1.5950 H   0  0  0  0  0  0  0  0  0  0  0  0
    1.0072   -0.7968    2.4549 H   0  0  0  0  0  0  0  0  0  0  0  0
    0.4870   -1.8602    1.1924 H   0  0  0  0  0  0  0  0  0  0  0  0
  1  2  1  0
  2  3  1  0
  3  4  1  0
  4  5  2  0
  5  6  1  0
  6  7  1  0
  6  8  1  0
  8  9  1  0
  8 10  1  0
 10 11  1  0
 10  3  1  0
  1 12  1  0
  1 13  1  0
  1 14  1  0
  3 15  1  6
  4 16  1  0
  5 17  1  0
  6 18  1  6
  7 19  1  0
  8 20  1  1
  9 21  1  0
  9 22  1  0
 10 23  1  1
 11 24  1  0
 11 25  1  0
M  END
$$$$

     RDKit          3D

 25 25  0  0  0  0  0  0  0  0999 V2000
    2.9648   -1.2381   -0.4304 C   0  0  0  0  0  0  0  0  0  0  0  0
    2.1327   -0.5954    0.4809 O   0  0  0  0  0  0  0  0  0  0  0  0
    1.0435   -0.0617   -0.1986 C   0  0  2  0  0  0  0  0  0  0  0  0
    1.0910    1.4184   -0.0488 C   0  0  0  0  0  0  0  0  0  0  0  0
   -0.0171    2.0949   -0.3186 C   0  0  0  0  0  0  0  0  0  0  0  0
   -1.2070    1.3507   -0.7431 C   0  0  2  0  0  0  0  0  0  0  0  0
   -2.3328    2.1599   -0.5947 O   0  0  0  0  0  0  0  0  0  0  0  0
   -1.4496    0.1001    0.0694 C   0  0  1  0  0  0  0  0  0  0  0  0
   -2.3460   -0.7270   -0.6393 N   0  0  0  0  0  0  0  0  0  0  0  0
   -0.2106   -0.6479    0.4069 C   0  0  1  0  0  0  0  0  0  0  0  0
   -0.2768   -2.0511   -0.0289 N   0  0  0  0  0  0  0  0  0  0  0  0
    2.4147   -2.0452   -0.9334 H   0  0  0  0  0  0  0  0  0  0  0  0
    3.3398   -0.5322   -1.2060 H   0  0  0  0  0  0  0  0  0  0  0  0
    3.8315   -1.6392    0.1601 H   0  0  0  0  0  0  0  0  0  0  0  0
    1.1347   -0.2897   -1.2580 H   0  0  0  0  0  0  0  0  0  0  0  0
    1.9761    1.9578    0.2656 H   0  0  0  0  0  0  0  0  0  0  0  0
   -0.0464    3.1655   -0.2293 H   0  0  0  0  0  0  0  0  0  0  0  0
   -1.1167    1.0446   -1.8179 H   0  0  0  0  0  0  0  0  0  0  0  0
   -2.0979    2.9856   -0.0813 H   0  0  0  0  0  0  0  0  0  0  0  0
   -1.9605    0.4430    1.0168 H   0  0  0  0  0  0  0  0  0  0  0  0
   -3.1916   -1.0382   -0.1606 H   0  0  0  0  0  0  0  0  0  0  0  0
   -2.3528   -0.6770   -1.6499 H   0  0  0  0  0  0  0  0  0  0  0  0
   -0.0533   -0.6891    1.5074 H   0  0  0  0  0  0  0  0  0  0  0  0
   -1.2888   -2.3331    0.0309 H   0  0  0  0  0  0  0  0  0  0  0  0
    0.0192   -2.1557   -1.0237 H   0  0  0  0  0  0  0  0  0  0  0  0
  1  2  1  0
  2  3  1  0
  3  4  1  0
  4  5  2  0
  5  6  1  0
  6  7  1  0
  6  8  1  0
  8  9  1  0
  8 10  1  0
 10 11  1  0
 10  3  1  0
  1 12  1  0
  1 13  1  0
  1 14  1  0
  3 15  1  6
  4 16  1  0
  5 17  1  0
  6 18  1  6
  7 19  1  0
  8 20  1  1
  9 21  1  0
  9 22  1  0
 10 23  1  1
 11 24  1  0
 11 25  1  0
M  END
$$$$

     RDKit          3D

 25 25  0  0  0  0  0  0  0  0999 V2000
    3.1073   -0.3737    0.0307 C   0  0  0  0  0  0  0  0  0  0  0  0
    2.1727    0.3408    0.7627 O   0  0  0  0  0  0  0  0  0  0  0  0
    0.9945    0.3668    0.0402 C   0  0  2  0  0  0  0  0  0  0  0  0
    0.5818    1.7510   -0.2968 C   0  0  0  0  0  0  0  0  0  0  0  0
   -0.6620    1.9762   -0.6386 C   0  0  0  0  0  0  0  0  0  0  0  0
   -1.7133    0.9304   -0.7165 C   0  0  2  0  0  0  0  0  0  0  0  0
   -2.9100    1.5195   -0.3096 O   0  0  0  0  0  0  0  0  0  0  0  0
   -1.4054   -0.2950    0.0711 C   0  0  1  0  0  0  0  0  0  0  0  0
   -1.4892   -1.4673   -0.8053 N   0  0  0  0  0  0  0  0  0  0  0  0
   -0.1239   -0.2520    0.8304 C   0  0  1  0  0  0  0  0  0  0  0  0
    0.2673   -1.5862    1.2393 N   0  0  0  0  0  0  0  0  0  0  0  0
    4.0554   -0.3838    0.6324 H   0  0  0  0  0  0  0  0  0  0  0  0
    3.2922    0.0933   -0.9722 H   0  0  0  0  0  0  0  0  0  0  0  0
    2.7555   -1.3989   -0.1409 H   0  0  0  0  0  0  0  0  0  0  0  0
    1.0891   -0.1845   -0.9349 H   0  0  0  0  0  0  0  0  0  0  0  0
    1.3141    2.5401   -0.2529 H   0  0  0  0  0  0  0  0  0  0  0  0
   -0.9436    2.9964   -0.8814 H   0  0  0  0  0  0  0  0  0  0  0  0
   -1.8283    0.6825   -1.8023 H   0  0  0  0  0  0  0  0  0  0  0  0
   -3.5437    0.8034   -0.0173 H   0  0  0  0  0  0  0  0  0  0  0  0
   -2.2303   -0.4402    0.8289 H   0  0  0  0  0  0  0  0  0  0  0  0
   -0.5540   -1.7478   -1.1615 H   0  0  0  0  0  0  0  0  0  0  0  0
   -2.0091   -2.2538   -0.3433 H   0  0  0  0  0  0  0  0  0  0  0  0
   -0.2643    0.3516    1.7611 H   0  0  0  0  0  0  0  0  0  0  0  0
    0.3733   -1.6657    2.2672 H   0  0  0  0  0  0  0  0  0  0  0  0
   -0.3262   -2.3032    0.8093 H   0  0  0  0  0  0  0  0  0  0  0  0
  1  2  1  0
  2  3  1  0
  3  4  1  0
  4  5  2  0
  5  6  1  0
  6  7  1  0
  6  8  1  0
  8  9  1  0
  8 10  1  0
 10 11  1  0
 10  3  1  0
  1 12  1  0
  1 13  1  0
  1 14  1  0
  3 15  1  6
  4 16  1  0
  5 17  1  0
  6 18  1  6
  7 19  1  0
  8 20  1  1
  9 21  1  0
  9 22  1  0
 10 23  1  1
 11 24  1  0
 11 25  1  0
M  END
$$$$

     RDKit          3D

 25 25  0  0  0  0  0  0  0  0999 V2000
    3.0946    0.2995    0.4789 C   0  0  0  0  0  0  0  0  0  0  0  0
    2.1612   -0.2695   -0.4181 O   0  0  0  0  0  0  0  0  0  0  0  0
    0.8970   -0.2427    0.1101 C   0  0  2  0  0  0  0  0  0  0  0  0
    0.3265   -1.6080    0.3369 C   0  0  0  0  0  0  0  0  0  0  0  0
   -0.9807   -1.8091    0.3371 C   0  0  0  0  0  0  0  0  0  0  0  0
   -1.9941   -0.7533    0.1222 C   0  0  2  0  0  0  0  0  0  0  0  0
   -2.6691   -1.0214   -1.0684 O   0  0  0  0  0  0  0  0  0  0  0  0
   -1.3742    0.6181   -0.0132 C   0  0  1  0  0  0  0  0  0  0  0  0
   -1.1851    1.1449    1.3218 N   0  0  0  0  0  0  0  0  0  0  0  0
   -0.1022    0.4699   -0.7767 C   0  0  1  0  0  0  0  0  0  0  0  0
    0.4097    1.6976   -1.3154 N   0  0  0  0  0  0  0  0  0  0  0  0
    4.1070    0.2677    0.0332 H   0  0  0  0  0  0  0  0  0  0  0  0
    3.0580   -0.3594    1.3921 H   0  0  0  0  0  0  0  0  0  0  0  0
    2.8053    1.3298    0.7359 H   0  0  0  0  0  0  0  0  0  0  0  0
    0.9453    0.2301    1.1254 H   0  0  0  0  0  0  0  0  0  0  0  0
    1.0267   -2.4207    0.5001 H   0  0  0  0  0  0  0  0  0  0  0  0
   -1.3495   -2.8151    0.5056 H   0  0  0  0  0  0  0  0  0  0  0  0
   -2.7603   -0.7578    0.9356 H   0  0  0  0  0  0  0  0  0  0  0  0
   -2.6662   -1.9910   -1.2191 H   0  0  0  0  0  0  0  0  0  0  0  0
   -2.1082    1.2506   -0.5762 H   0  0  0  0  0  0  0  0  0  0  0  0
   -2.0295    1.7097    1.5606 H   0  0  0  0  0  0  0  0  0  0  0  0
   -0.3702    1.7803    1.4035 H   0  0  0  0  0  0  0  0  0  0  0  0
   -0.3025   -0.2246   -1.6338 H   0  0  0  0  0  0  0  0  0  0  0  0
    1.3089    1.4746   -1.8007 H   0  0  0  0  0  0  0  0  0  0  0  0
   -0.2482    1.9998   -2.0774 H   0  0  0  0  0  0  0  0  0  0  0  0
  1  2  1  0
  2  3  1  0
  3  4  1  0
  4  5  2  0
  5  6  1  0
  6  7  1  0
  6  8  1  0
  8  9  1  0
  8 10  1  0
 10 11  1  0
 10  3  1  0
  1 12  1  0
  1 13  1  0
  1 14  1  0
  3 15  1  1
  4 16  1  0
  5 17  1  0
  6 18  1  1
  7 19  1  0
  8 20  1  6
  9 21  1  0
  9 22  1  0
 10 23  1  6
 11 24  1  0
 11 25  1  0
M  END
$$$$

     RDKit          3D

 25 25  0  0  0  0  0  0  0  0999 V2000
   -3.0468    0.6454   -0.5779 C   0  0  0  0  0  0  0  0  0  0  0  0
   -2.1645   -0.3883   -0.3520 O   0  0  0  0  0  0  0  0  0  0  0  0
   -0.8422   -0.0489   -0.3699 C   0  0  2  0  0  0  0  0  0  0  0  0
   -0.0791   -0.7059   -1.4701 C   0  0  0  0  0  0  0  0  0  0  0  0
    1.2039   -0.9416   -1.3703 C   0  0  0  0  0  0  0  0  0  0  0  0
    2.0501   -0.6051   -0.2003 C   0  0  2  0  0  0  0  0  0  0  0  0
    2.4853   -1.7631    0.4757 O   0  0  0  0  0  0  0  0  0  0  0  0
    1.2888    0.2971    0.7505 C   0  0  1  0  0  0  0  0  0  0  0  0
    1.1678    1.5883    0.0892 N   0  0  0  0  0  0  0  0  0  0  0  0
   -0.1002   -0.3123    0.8987 C   0  0  1  0  0  0  0  0  0  0  0  0
   -0.7311    0.1150    2.0841 N   0  0  0  0  0  0  0  0  0  0  0  0
   -2.9808    1.4664    0.1570 H   0  0  0  0  0  0  0  0  0  0  0  0
   -4.0744    0.2284   -0.4886 H   0  0  0  0  0  0  0  0  0  0  0  0
   -2.9341    0.9731   -1.6262 H   0  0  0  0  0  0  0  0  0  0  0  0
   -0.7693    1.0565   -0.5761 H   0  0  0  0  0  0  0  0  0  0  0  0
   -0.5944   -0.9981   -2.3784 H   0  0  0  0  0  0  0  0  0  0  0  0
    1.7155   -1.4281   -2.2111 H   0  0  0  0  0  0  0  0  0  0  0  0
    2.9321   -0.0586   -0.5679 H   0  0  0  0  0  0  0  0  0  0  0  0
    1.8309   -2.4930    0.3027 H   0  0  0  0  0  0  0  0  0  0  0  0
    1.8053    0.3894    1.7171 H   0  0  0  0  0  0  0  0  0  0  0  0
    1.8821    2.2308    0.5424 H   0  0  0  0  0  0  0  0  0  0  0  0
    1.4364    1.5456   -0.9134 H   0  0  0  0  0  0  0  0  0  0  0  0
    0.0689   -1.4170    0.9637 H   0  0  0  0  0  0  0  0  0  0  0  0
   -0.9253    1.0943    2.2047 H   0  0  0  0  0  0  0  0  0  0  0  0
   -0.6250   -0.4703    2.9166 H   0  0  0  0  0  0  0  0  0  0  0  0
  1  2  1  0
  2  3  1  0
  3  4  1  0
  4  5  2  0
  5  6  1  0
  6  7  1  0
  6  8  1  0
  8  9  1  0
  8 10  1  0
 10 11  1  0
 10  3  1  0
  1 12  1  0
  1 13  1  0
  1 14  1  0
  3 15  1  6
  4 16  1  0
  5 17  1  0
  6 18  1  6
  7 19  1  0
  8 20  1  1
  9 21  1  0
  9 22  1  0
 10 23  1  1
 11 24  1  0
 11 25  1  0
M  END
$$$$
