
     RDKit          3D

 24 24  0  0  0  0  0  0  0  0999 V2000
   -0.6196   -1.7575    1.1148 N   0  0  0  0  0  0  0  0  0  0  0  0
   -0.6442   -1.0515   -0.1389 C   0  0  2  0  0  0  0  0  0  0  0  0
    0.7516   -0.8661   -0.6568 C   0  0  2  0  0  0  0  0  0  0  0  0
    1.3838   -2.0969   -0.6034 O   0  0  0  0  0  0  0  0  0  0  0  0
    1.4280    0.1941    0.1611 C   0  0  1  0  0  0  0  0  0  0  0  0
    2.7746    0.3022   -0.0416 O   0  0  0  0  0  0  0  0  0  0  0  0
    0.6953    1.5031   -0.1661 C   0  0  0  0  0  0  0  0  0  0  0  0
   -0.6563    1.3828    0.4869 C   0  0  1  0  0  0  0  0  0  0  0  0
   -1.4270    2.5239    0.2673 O   0  0  0  0  0  0  0  0  0  0  0  0
   -1.4233    0.2013    0.0196 C   0  0  1  0  0  0  0  0  0  0  0  0
   -2.1457    0.5027   -1.1583 O   0  0  0  0  0  0  0  0  0  0  0  0
    0.3096   -2.1130    1.3900 H   0  0  0  0  0  0  0  0  0  0  0  0
   -1.4028   -2.4184    1.2503 H   0  0  0  0  0  0  0  0  0  0  0  0
   -1.1821   -1.6861   -0.9039 H   0  0  0  0  0  0  0  0  0  0  0  0
    0.6771   -0.4687   -1.7081 H   0  0  0  0  0  0  0  0  0  0  0  0
    2.3086   -2.1011   -0.8908 H   0  0  0  0  0  0  0  0  0  0  0  0
    1.1900   -0.0008    1.2418 H   0  0  0  0  0  0  0  0  0  0  0  0
    3.1478   -0.2464   -0.7555 H   0  0  0  0  0  0  0  0  0  0  0  0
    0.5174    1.4890   -1.2703 H   0  0  0  0  0  0  0  0  0  0  0  0
    1.2324    2.3803    0.1824 H   0  0  0  0  0  0  0  0  0  0  0  0
   -0.5179    1.3046    1.6010 H   0  0  0  0  0  0  0  0  0  0  0  0
   -1.2895    3.1916    0.9934 H   0  0  0  0  0  0  0  0  0  0  0  0
   -2.2289   -0.0003    0.7867 H   0  0  0  0  0  0  0  0  0  0  0  0
   -2.8790   -0.1688   -1.2017 H   0  0  0  0  0  0  0  0  0  0  0  0
  1  2  1  0
  2  3  1  0
  3  4  1  0
  3  5  1  0
  5  6  1  0
  5  7  1  0
  7  8  1  0
  8  9  1  0
  8 10  1  0
 10 11  1  0
 10  2  1  0
  1 12  1  0
  1 13  1  0
  2 14  1  6
  3 15  1  6
  4 16  1  0
  5 17  1  1
  6 18  1  0
  7 19  1  0
  7 20  1  0
  8 21  1  1
  9 22  1  0
 10 23  1  1
 11 24  1  0
M  END
$$$$

     RDKit          3D

 24 24  0  0  0  0  0  0  0  0999 V2000
    2.3525    0.4749    0.2874 N   0  0  0  0  0  0  0  0  0  0  0  0
    1.0339    0.1676   -0.1938 C   0  0  2  0  0  0  0  0  0  0  0  0
    0.0443    1.2566    0.0928 C   0  0  2  0  0  0  0  0  0  0  0  0
    0.6475    2.2273    0.8925 O   0  0  0  0  0  0  0  0  0  0  0  0
   -1.2170    0.7010    0.7203 C   0  0  1  0  0  0  0  0  0  0  0  0
   -2.1752    1.7019    0.8213 O   0  0  0  0  0  0  0  0  0  0  0  0
   -1.7394   -0.3689   -0.2155 C   0  0  0  0  0  0  0  0  0  0  0  0
   -0.7516   -1.4601   -0.4670 C   0  0  1  0  0  0  0  0  0  0  0  0
   -0.3516   -1.5080   -1.8128 O   0  0  0  0  0  0  0  0  0  0  0  0
    0.5257   -1.1707    0.3335 C   0  0  1  0  0  0  0  0  0  0  0  0
    1.4871   -2.1491    0.1016 O   0  0  0  0  0  0  0  0  0  0  0  0
    2.6058   -0.1877    1.0488 H   0  0  0  0  0  0  0  0  0  0  0  0
    3.0803    0.4224   -0.4681 H   0  0  0  0  0  0  0  0  0  0  0  0
    1.1144    0.0249   -1.3108 H   0  0  0  0  0  0  0  0  0  0  0  0
   -0.2646    1.7546   -0.8587 H   0  0  0  0  0  0  0  0  0  0  0  0
    1.0635    2.9564    0.3573 H   0  0  0  0  0  0  0  0  0  0  0  0
   -1.0473    0.3153    1.7435 H   0  0  0  0  0  0  0  0  0  0  0  0
   -2.1398    2.3667    0.1067 H   0  0  0  0  0  0  0  0  0  0  0  0
   -1.9359    0.1429   -1.1932 H   0  0  0  0  0  0  0  0  0  0  0  0
   -2.7136   -0.7463    0.1469 H   0  0  0  0  0  0  0  0  0  0  0  0
   -1.1099   -2.4665   -0.1780 H   0  0  0  0  0  0  0  0  0  0  0  0
   -0.6456   -0.7273   -2.3241 H   0  0  0  0  0  0  0  0  0  0  0  0
    0.3325   -1.1513    1.4138 H   0  0  0  0  0  0  0  0  0  0  0  0
    1.8040   -2.5767    0.9555 H   0  0  0  0  0  0  0  0  0  0  0  0
  1  2  1  0
  2  3  1  0
  3  4  1  0
  3  5  1  0
  5  6  1  0
  5  7  1  0
  7  8  1  0
  8  9  1  0
  8 10  1  0
 10 11  1  0
 10  2  1  0
  1 12  1  0
  1 13  1  0
  2 14  1  6
  3 15  1  6
  4 16  1  0
  5 17  1  1
  6 18  1  0
  7 19  1  0
  7 20  1  0
  8 21  1  1
  9 22  1  0
 10 23  1  1
 11 24  1  0
M  END
$$$$

     RDKit          3D

 24 24  0  0  0  0  0  0  0  0999 V2000
    1.6192    1.8649   -0.0008 N   0  0  0  0  0  0  0  0  0  0  0  0
    0.5196    0.9802    0.2682 C   0  0  2  0  0  0  0  0  0  0  0  0
    0.9434   -0.4186    0.6227 C   0  0  2  0  0  0  0  0  0  0  0  0
    2.2890   -0.5434    0.3682 O   0  0  0  0  0  0  0  0  0  0  0  0
    0.1879   -1.4769   -0.1355 C   0  0  1  0  0  0  0  0  0  0  0  0
    0.4211   -2.6920    0.5506 O   0  0  0  0  0  0  0  0  0  0  0  0
   -1.2990   -1.2532   -0.1343 C   0  0  0  0  0  0  0  0  0  0  0  0
   -1.6785    0.1915   -0.3514 C   0  0  1  0  0  0  0  0  0  0  0  0
   -1.9284    0.8178    0.8759 O   0  0  0  0  0  0  0  0  0  0  0  0
   -0.4263    0.8805   -0.9118 C   0  0  1  0  0  0  0  0  0  0  0  0
   -0.7120    2.0946   -1.4798 O   0  0  0  0  0  0  0  0  0  0  0  0
    2.2902    1.7989    0.7884 H   0  0  0  0  0  0  0  0  0  0  0  0
    1.2191    2.8456   -0.0080 H   0  0  0  0  0  0  0  0  0  0  0  0
   -0.0649    1.4500    1.1111 H   0  0  0  0  0  0  0  0  0  0  0  0
    0.7419   -0.5905    1.7032 H   0  0  0  0  0  0  0  0  0  0  0  0
    2.7833   -0.4712    1.2318 H   0  0  0  0  0  0  0  0  0  0  0  0
    0.5993   -1.6507   -1.1607 H   0  0  0  0  0  0  0  0  0  0  0  0
    1.2663   -3.1038    0.1988 H   0  0  0  0  0  0  0  0  0  0  0  0
   -1.7780   -1.8663   -0.9010 H   0  0  0  0  0  0  0  0  0  0  0  0
   -1.7254   -1.5814    0.8475 H   0  0  0  0  0  0  0  0  0  0  0  0
   -2.4881    0.3423   -1.0609 H   0  0  0  0  0  0  0  0  0  0  0  0
   -1.7248    0.2218    1.6436 H   0  0  0  0  0  0  0  0  0  0  0  0
    0.0569    0.2450   -1.6866 H   0  0  0  0  0  0  0  0  0  0  0  0
   -1.1118    1.9149   -2.3790 H   0  0  0  0  0  0  0  0  0  0  0  0
  1  2  1  0
  2  3  1  0
  3  4  1  0
  3  5  1  0
  5  6  1  0
  5  7  1  0
  7  8  1  0
  8  9  1  0
  8 10  1  0
 10 11  1  0
 10  2  1  0
  1 12  1  0
  1 13  1  0
  2 14  1  1
  3 15  1  1
  4 16  1  0
  5 17  1  6
  6 18  1  0
  7 19  1  0
  7 20  1  0
  8 21  1  6
  9 22  1  0
 10 23  1  6
 11 24  1  0
M  END
$$$$

     RDKit          3D

 24 24  0  0  0  0  0  0  0  0999 V2000
    0.4403    2.4098   -0.2008 N   0  0  0  0  0  0  0  0  0  0  0  0
    0.2986    1.0023   -0.4287 C   0  0  2  0  0  0  0  0  0  0  0  0
   -1.1208    0.5927   -0.2406 C   0  0  2  0  0  0  0  0  0  0  0  0
   -1.6204    1.3512    0.8466 O   0  0  0  0  0  0  0  0  0  0  0  0
   -1.3751   -0.8437   -0.0553 C   0  0  1  0  0  0  0  0  0  0  0  0
   -1.9888   -1.3534   -1.2263 O   0  0  0  0  0  0  0  0  0  0  0  0
   -0.2628   -1.7217    0.3151 C   0  0  0  0  0  0  0  0  0  0  0  0
    1.1136   -1.1507    0.2087 C   0  0  1  0  0  0  0  0  0  0  0  0
    1.5927   -1.1735   -1.1113 O   0  0  0  0  0  0  0  0  0  0  0  0
    1.1208    0.2854    0.6503 C   0  0  1  0  0  0  0  0  0  0  0  0
    2.3831    0.8285    0.6860 O   0  0  0  0  0  0  0  0  0  0  0  0
    1.4412    2.6849   -0.3946 H   0  0  0  0  0  0  0  0  0  0  0  0
   -0.2354    2.9975   -0.7175 H   0  0  0  0  0  0  0  0  0  0  0  0
    0.6756    0.6800   -1.4283 H   0  0  0  0  0  0  0  0  0  0  0  0
   -1.6925    0.9909   -1.1309 H   0  0  0  0  0  0  0  0  0  0  0  0
   -2.5618    1.1107    1.0461 H   0  0  0  0  0  0  0  0  0  0  0  0
   -2.1890   -0.9504    0.7249 H   0  0  0  0  0  0  0  0  0  0  0  0
   -2.7783   -0.7593   -1.4238 H   0  0  0  0  0  0  0  0  0  0  0  0
   -0.3588   -2.1109    1.3730 H   0  0  0  0  0  0  0  0  0  0  0  0
   -0.2511   -2.6670   -0.3059 H   0  0  0  0  0  0  0  0  0  0  0  0
    1.8225   -1.7534    0.8087 H   0  0  0  0  0  0  0  0  0  0  0  0
    2.2807   -1.8713   -1.2355 H   0  0  0  0  0  0  0  0  0  0  0  0
    0.5881    0.3415    1.6242 H   0  0  0  0  0  0  0  0  0  0  0  0
    2.6777    1.0799    1.6159 H   0  0  0  0  0  0  0  0  0  0  0  0
  1  2  1  0
  2  3  1  0
  3  4  1  0
  3  5  1  0
  5  6  1  0
  5  7  1  0
  7  8  1  0
  8  9  1  0
  8 10  1  0
 10 11  1  0
 10  2  1  0
  1 12  1  0
  1 13  1  0
  2 14  1  6
  3 15  1  6
  4 16  1  0
  5 17  1  1
  6 18  1  0
  7 19  1  0
  7 20  1  0
  8 21  1  1
  9 22  1  0
 10 23  1  1
 11 24  1  0
M  END
$$$$

     RDKit          3D

 24 24  0  0  0  0  0  0  0  0999 V2000
    1.3199    1.9177    0.6647 N   0  0  0  0  0  0  0  0  0  0  0  0
    0.8004    0.8592   -0.2214 C   0  0  2  0  0  0  0  0  0  0  0  0
   -0.6729    1.0840   -0.3177 C   0  0  2  0  0  0  0  0  0  0  0  0
   -0.9882    2.4153   -0.0420 O   0  0  0  0  0  0  0  0  0  0  0  0
   -1.4516    0.2249    0.6597 C   0  0  1  0  0  0  0  0  0  0  0  0
   -2.8153    0.4606    0.3850 O   0  0  0  0  0  0  0  0  0  0  0  0
   -1.1719   -1.1949    0.2577 C   0  0  0  0  0  0  0  0  0  0  0  0
    0.2666   -1.5659    0.2802 C   0  0  1  0  0  0  0  0  0  0  0  0
    0.4636   -2.4780   -0.7866 O   0  0  0  0  0  0  0  0  0  0  0  0
    1.2403   -0.4706    0.2143 C   0  0  1  0  0  0  0  0  0  0  0  0
    2.3096   -0.8810   -0.6199 O   0  0  0  0  0  0  0  0  0  0  0  0
    0.8971    1.7853    1.6197 H   0  0  0  0  0  0  0  0  0  0  0  0
    2.3491    1.7739    0.6936 H   0  0  0  0  0  0  0  0  0  0  0  0
    1.2281    1.1310   -1.2330 H   0  0  0  0  0  0  0  0  0  0  0  0
   -1.0600    0.8640   -1.3253 H   0  0  0  0  0  0  0  0  0  0  0  0
   -1.1594    2.9555   -0.8322 H   0  0  0  0  0  0  0  0  0  0  0  0
   -1.1961    0.4168    1.7067 H   0  0  0  0  0  0  0  0  0  0  0  0
   -3.1976   -0.2250   -0.1934 H   0  0  0  0  0  0  0  0  0  0  0  0
   -1.6001   -1.3207   -0.7758 H   0  0  0  0  0  0  0  0  0  0  0  0
   -1.8006   -1.8578    0.9009 H   0  0  0  0  0  0  0  0  0  0  0  0
    0.4190   -2.2073    1.1997 H   0  0  0  0  0  0  0  0  0  0  0  0
    1.1181   -3.1862   -0.5265 H   0  0  0  0  0  0  0  0  0  0  0  0
    1.7301   -0.3690    1.2282 H   0  0  0  0  0  0  0  0  0  0  0  0
    2.9718   -0.1318   -0.7173 H   0  0  0  0  0  0  0  0  0  0  0  0
  1  2  1  0
  2  3  1  0
  3  4  1  0
  3  5  1  0
  5  6  1  0
  5  7  1  0
  7  8  1  0
  8  9  1  0
  8 10  1  0
 10 11  1  0
 10  2  1  0
  1 12  1  0
  1 13  1  0
  2 14  1  6
  3 15  1  6
  4 16  1  0
  5 17  1  1
  6 18  1  0
  7 19  1  0
  7 20  1  0
  8 21  1  1
  9 22  1  0
 10 23  1  1
 11 24  1  0
M  END
$$$$

     RDKit          3D

 24 24  0  0  0  0  0  0  0  0999 V2000
   -2.2288    0.4752   -0.5570 N   0  0  0  0  0  0  0  0  0  0  0  0
   -1.2082   -0.0452    0.3716 C   0  0  2  0  0  0  0  0  0  0  0  0
   -0.2921    1.0738    0.6910 C   0  0  2  0  0  0  0  0  0  0  0  0
   -0.9453    2.3111    0.4736 O   0  0  0  0  0  0  0  0  0  0  0  0
    0.9775    1.1110   -0.0833 C   0  0  1  0  0  0  0  0  0  0  0  0
    1.8017    2.0949    0.4763 O   0  0  0  0  0  0  0  0  0  0  0  0
    1.6433   -0.2331    0.0612 C   0  0  0  0  0  0  0  0  0  0  0  0
    0.7939   -1.2915   -0.5393 C   0  0  1  0  0  0  0  0  0  0  0  0
    1.4099   -2.5276   -0.2542 O   0  0  0  0  0  0  0  0  0  0  0  0
   -0.6314   -1.2910   -0.1301 C   0  0  1  0  0  0  0  0  0  0  0  0
   -0.7998   -2.3385    0.8093 O   0  0  0  0  0  0  0  0  0  0  0  0
   -1.8468    0.6467   -1.4962 H   0  0  0  0  0  0  0  0  0  0  0  0
   -2.6697    1.3173   -0.1206 H   0  0  0  0  0  0  0  0  0  0  0  0
   -1.7954   -0.2543    1.3163 H   0  0  0  0  0  0  0  0  0  0  0  0
   -0.0172    1.0958    1.7831 H   0  0  0  0  0  0  0  0  0  0  0  0
   -0.9674    2.4029   -0.5204 H   0  0  0  0  0  0  0  0  0  0  0  0
    0.8240    1.3687   -1.1412 H   0  0  0  0  0  0  0  0  0  0  0  0
    1.2846    2.6914    1.0969 H   0  0  0  0  0  0  0  0  0  0  0  0
    2.6056   -0.1925   -0.4884 H   0  0  0  0  0  0  0  0  0  0  0  0
    1.8796   -0.4225    1.1214 H   0  0  0  0  0  0  0  0  0  0  0  0
    0.8823   -1.1939   -1.6619 H   0  0  0  0  0  0  0  0  0  0  0  0
    2.3020   -2.5551   -0.7129 H   0  0  0  0  0  0  0  0  0  0  0  0
   -1.2350   -1.6495   -1.0176 H   0  0  0  0  0  0  0  0  0  0  0  0
   -1.7673   -2.5942    0.7884 H   0  0  0  0  0  0  0  0  0  0  0  0
  1  2  1  0
  2  3  1  0
  3  4  1  0
  3  5  1  0
  5  6  1  0
  5  7  1  0
  7  8  1  0
  8  9  1  0
  8 10  1  0
 10 11  1  0
 10  2  1  0
  1 12  1  0
  1 13  1  0
  2 14  1  1
  3 15  1  1
  4 16  1  0
  5 17  1  6
  6 18  1  0
  7 19  1  0
  7 20  1  0
  8 21  1  6
  9 22  1  0
 10 23  1  6
 11 24  1  0
M  END
$$$$

     RDKit          3D

 24 24  0  0  0  0  0  0  0  0999 V2000
   -0.8861   -2.2890    0.0226 N   0  0  0  0  0  0  0  0  0  0  0  0
   -0.3891   -0.9799    0.2945 C   0  0  2  0  0  0  0  0  0  0  0  0
   -1.1674    0.0677   -0.4465 C   0  0  2  0  0  0  0  0  0  0  0  0
   -1.3101   -0.3012   -1.7805 O   0  0  0  0  0  0  0  0  0  0  0  0
   -0.6180    1.4398   -0.3109 C   0  0  1  0  0  0  0  0  0  0  0  0
   -1.1431    2.1264    0.7965 O   0  0  0  0  0  0  0  0  0  0  0  0
    0.8576    1.5479   -0.2661 C   0  0  0  0  0  0  0  0  0  0  0  0
    1.5426    0.4355    0.4923 C   0  0  1  0  0  0  0  0  0  0  0  0
    1.1033    0.3590    1.8140 O   0  0  0  0  0  0  0  0  0  0  0  0
    1.0613   -0.8605   -0.1777 C   0  0  1  0  0  0  0  0  0  0  0  0
    1.8237   -1.9419    0.1620 O   0  0  0  0  0  0  0  0  0  0  0  0
   -1.8342   -2.3878    0.4652 H   0  0  0  0  0  0  0  0  0  0  0  0
   -0.2768   -2.9688    0.5709 H   0  0  0  0  0  0  0  0  0  0  0  0
   -0.3918   -0.7831    1.3829 H   0  0  0  0  0  0  0  0  0  0  0  0
   -2.2027    0.0719   -0.0048 H   0  0  0  0  0  0  0  0  0  0  0  0
   -2.1607   -0.7662   -1.9585 H   0  0  0  0  0  0  0  0  0  0  0  0
   -0.9741    2.0321   -1.2048 H   0  0  0  0  0  0  0  0  0  0  0  0
   -2.0347    2.4983    0.6159 H   0  0  0  0  0  0  0  0  0  0  0  0
    1.1334    2.4947    0.2359 H   0  0  0  0  0  0  0  0  0  0  0  0
    1.2918    1.5356   -1.2960 H   0  0  0  0  0  0  0  0  0  0  0  0
    2.6201    0.5680    0.4010 H   0  0  0  0  0  0  0  0  0  0  0  0
    0.6007    1.1444    2.1094 H   0  0  0  0  0  0  0  0  0  0  0  0
    1.1188   -0.6715   -1.2648 H   0  0  0  0  0  0  0  0  0  0  0  0
    2.2354   -2.3712   -0.6524 H   0  0  0  0  0  0  0  0  0  0  0  0
  1  2  1  0
  2  3  1  0
  3  4  1  0
  3  5  1  0
  5  6  1  0
  5  7  1  0
  7  8  1  0
  8  9  1  0
  8 10  1  0
 10 11  1  0
 10  2  1  0
  1 12  1  0
  1 13  1  0
  2 14  1  1
  3 15  1  1
  4 16  1  0
  5 17  1  6
  6 18  1  0
  7 19  1  0
  7 20  1  0
  8 21  1  1
  9 22  1  0
 10 23  1  6
 11 24  1  0
M  END
$$$$

     RDKit          3D

 24 24  0  0  0  0  0  0  0  0999 V2000
   -0.5874    1.4537   -1.3129 N   0  0  0  0  0  0  0  0  0  0  0  0
   -0.7333    1.0334    0.0730 C   0  0  2  0  0  0  0  0  0  0  0  0
    0.6333    0.9930    0.6830 C   0  0  2  0  0  0  0  0  0  0  0  0
    1.2862    2.1884    0.4228 O   0  0  0  0  0  0  0  0  0  0  0  0
    1.4868   -0.1158    0.0978 C   0  0  1  0  0  0  0  0  0  0  0  0
    2.6752   -0.2111    0.7895 O   0  0  0  0  0  0  0  0  0  0  0  0
    0.7168   -1.4153    0.3227 C   0  0  0  0  0  0  0  0  0  0  0  0
   -0.5127   -1.3286   -0.5712 C   0  0  1  0  0  0  0  0  0  0  0  0
   -1.1383   -2.5573   -0.6972 O   0  0  0  0  0  0  0  0  0  0  0  0
   -1.4286   -0.2974    0.0661 C   0  0  1  0  0  0  0  0  0  0  0  0
   -1.7688   -0.7599    1.3152 O   0  0  0  0  0  0  0  0  0  0  0  0
   -1.1792    0.8705   -1.9579 H   0  0  0  0  0  0  0  0  0  0  0  0
   -0.7745    2.4726   -1.4312 H   0  0  0  0  0  0  0  0  0  0  0  0
   -1.3208    1.8031    0.5966 H   0  0  0  0  0  0  0  0  0  0  0  0
    0.5506    0.8233    1.7691 H   0  0  0  0  0  0  0  0  0  0  0  0
    0.9619    2.8876    1.0264 H   0  0  0  0  0  0  0  0  0  0  0  0
    1.6408    0.0597   -0.9883 H   0  0  0  0  0  0  0  0  0  0  0  0
    3.4632    0.0197    0.2485 H   0  0  0  0  0  0  0  0  0  0  0  0
    0.4099   -1.4156    1.3995 H   0  0  0  0  0  0  0  0  0  0  0  0
    1.3213   -2.2958    0.0677 H   0  0  0  0  0  0  0  0  0  0  0  0
   -0.1530   -0.9582   -1.5511 H   0  0  0  0  0  0  0  0  0  0  0  0
   -0.9072   -2.9163   -1.6014 H   0  0  0  0  0  0  0  0  0  0  0  0
   -2.3217   -0.2053   -0.5952 H   0  0  0  0  0  0  0  0  0  0  0  0
   -2.3207   -0.1285    1.8285 H   0  0  0  0  0  0  0  0  0  0  0  0
  1  2  1  0
  2  3  1  0
  3  4  1  0
  3  5  1  0
  5  6  1  0
  5  7  1  0
  7  8  1  0
  8  9  1  0
  8 10  1  0
 10 11  1  0
 10  2  1  0
  1 12  1  0
  1 13  1  0
  2 14  1  1
  3 15  1  1
  4 16  1  0
  5 17  1  6
  6 18  1  0
  7 19  1  0
  7 20  1  0
  8 21  1  6
  9 22  1  0
 10 23  1  6
 11 24  1  0
M  END
$$$$
