
     RDKit          3D

 29 29  0  0  0  0  0  0  0  0999 V2000
    3.2740   -0.2576   -1.2675 C   0  0  0  0  0  0  0  0  0  0  0  0
    2.1142    0.4248   -0.8398 O   0  0  0  0  0  0  0  0  0  0  0  0
    1.1724   -0.4831   -0.3696 C   0  0  2  0  0  0  0  0  0  0  0  0
    0.0257   -0.3141   -1.1512 O   0  0  0  0  0  0  0  0  0  0  0  0
   -1.1163   -0.6800   -0.4547 C   0  0  2  0  0  0  0  0  0  0  0  0
   -2.2624   -1.0101   -1.3904 C   0  0  0  0  0  0  0  0  0  0  0  0
   -3.3961   -1.3741   -0.6660 O   0  0  0  0  0  0  0  0  0  0  0  0
   -1.4756    0.3558    0.5618 C   0  0  2  0  0  0  0  0  0  0  0  0
   -2.4469    1.3059    0.1338 N   0  0  0  0  0  0  0  0  0  0  0  0
   -0.1661    1.0151    1.0074 C   0  0  2  0  0  0  0  0  0  0  0  0
    0.2134    1.9131    0.0154 O   0  0  0  0  0  0  0  0  0  0  0  0
    0.8491   -0.1267    1.0713 C   0  0  2  0  0  0  0  0  0  0  0  0
    2.0114    0.2373    1.8268 N   0  0  0  0  0  0  0  0  0  0  0  0
    3.7189   -0.8331   -0.4100 H   0  0  0  0  0  0  0  0  0  0  0  0
    4.0233    0.4786   -1.6026 H   0  0  0  0  0  0  0  0  0  0  0  0
    3.0398   -0.9775   -2.0679 H   0  0  0  0  0  0  0  0  0  0  0  0
    1.5730   -1.5165   -0.4502 H   0  0  0  0  0  0  0  0  0  0  0  0
   -0.8642   -1.6450    0.0713 H   0  0  0  0  0  0  0  0  0  0  0  0
   -1.9731   -1.9028   -1.9846 H   0  0  0  0  0  0  0  0  0  0  0  0
   -2.5433   -0.1621   -2.0334 H   0  0  0  0  0  0  0  0  0  0  0  0
   -3.2071   -2.2182   -0.1790 H   0  0  0  0  0  0  0  0  0  0  0  0
   -1.8650   -0.1554    1.4748 H   0  0  0  0  0  0  0  0  0  0  0  0
   -2.4401    2.1067    0.8005 H   0  0  0  0  0  0  0  0  0  0  0  0
   -2.3944    1.5802   -0.8510 H   0  0  0  0  0  0  0  0  0  0  0  0
   -0.2756    1.5287    1.9733 H   0  0  0  0  0  0  0  0  0  0  0  0
    0.0676    2.8464    0.2988 H   0  0  0  0  0  0  0  0  0  0  0  0
    0.3523   -0.9728    1.5978 H   0  0  0  0  0  0  0  0  0  0  0  0
    2.1472   -0.3731    2.6654 H   0  0  0  0  0  0  0  0  0  0  0  0
    1.8441    1.2096    2.2194 H   0  0  0  0  0  0  0  0  0  0  0  0
  1  2  1  0
  2  3  1  0
  3  4  1  0
  4  5  1  0
  5  6  1  0
  6  7  1  0
  5  8  1  0
  8  9  1  0
  8 10  1  0
 10 11  1  0
 10 12  1  0
 12 13  1  0
 12  3  1  0
  1 14  1  0
  1 15  1  0
  1 16  1  0
  3 17  1  1
  5 18  1  1
  6 19  1  0
  6 20  1  0
  7 21  1  0
  8 22  1  1
  9 23  1  0
  9 24  1  0
 10 25  1  1
 11 26  1  0
 12 27  1  1
 13 28  1  0
 13 29  1  0
M  END
$$$$

     RDKit          3D

 29 29  0  0  0  0  0  0  0  0999 V2000
    3.3390   -1.2129   -0.4012 C   0  0  0  0  0  0  0  0  0  0  0  0
    2.4027   -0.4179   -1.0702 O   0  0  0  0  0  0  0  0  0  0  0  0
    1.3009   -0.2990   -0.2644 C   0  0  2  0  0  0  0  0  0  0  0  0
    0.1837   -0.8306   -0.9068 O   0  0  0  0  0  0  0  0  0  0  0  0
   -0.8823   -0.9712   -0.0346 C   0  0  2  0  0  0  0  0  0  0  0  0
   -1.9953   -1.6655   -0.7818 C   0  0  0  0  0  0  0  0  0  0  0  0
   -3.1211   -1.8570    0.0093 O   0  0  0  0  0  0  0  0  0  0  0  0
   -1.3305    0.3206    0.5717 C   0  0  2  0  0  0  0  0  0  0  0  0
   -2.0218    1.1816   -0.3358 N   0  0  0  0  0  0  0  0  0  0  0  0
   -0.1430    1.0606    1.1304 C   0  0  2  0  0  0  0  0  0  0  0  0
   -0.4957    2.3362    1.5722 O   0  0  0  0  0  0  0  0  0  0  0  0
    0.9607    1.1371    0.0842 C   0  0  2  0  0  0  0  0  0  0  0  0
    0.4749    1.8646   -1.0822 N   0  0  0  0  0  0  0  0  0  0  0  0
    2.8749   -2.2218   -0.2066 H   0  0  0  0  0  0  0  0  0  0  0  0
    4.2839   -1.3239   -0.9772 H   0  0  0  0  0  0  0  0  0  0  0  0
    3.5017   -0.7629    0.5859 H   0  0  0  0  0  0  0  0  0  0  0  0
    1.4101   -0.8463    0.7009 H   0  0  0  0  0  0  0  0  0  0  0  0
   -0.6012   -1.6571    0.8106 H   0  0  0  0  0  0  0  0  0  0  0  0
   -2.3073   -1.1055   -1.6880 H   0  0  0  0  0  0  0  0  0  0  0  0
   -1.6086   -2.6450   -1.1440 H   0  0  0  0  0  0  0  0  0  0  0  0
   -2.8016   -2.3871    0.8052 H   0  0  0  0  0  0  0  0  0  0  0  0
   -1.9981    0.0811    1.4343 H   0  0  0  0  0  0  0  0  0  0  0  0
   -2.9481    1.4938   -0.0362 H   0  0  0  0  0  0  0  0  0  0  0  0
   -1.8911    0.9853   -1.3264 H   0  0  0  0  0  0  0  0  0  0  0  0
    0.2741    0.4526    1.9664 H   0  0  0  0  0  0  0  0  0  0  0  0
    0.1844    2.6085    2.2382 H   0  0  0  0  0  0  0  0  0  0  0  0
    1.8266    1.6815    0.5225 H   0  0  0  0  0  0  0  0  0  0  0  0
   -0.1222    2.6521   -0.6862 H   0  0  0  0  0  0  0  0  0  0  0  0
    1.2499    2.3479   -1.5880 H   0  0  0  0  0  0  0  0  0  0  0  0
  1  2  1  0
  2  3  1  0
  3  4  1  0
  4  5  1  0
  5  6  1  0
  6  7  1  0
  5  8  1  0
  8  9  1  0
  8 10  1  0
 10 11  1  0
 10 12  1  0
 12 13  1  0
 12  3  1  0
  1 14  1  0
  1 15  1  0
  1 16  1  0
  3 17  1  1
  5 18  1  1
  6 19  1  0
  6 20  1  0
  7 21  1  0
  8 22  1  1
  9 23  1  0
  9 24  1  0
 10 25  1  1
 11 26  1  0
 12 27  1  1
 13 28  1  0
 13 29  1  0
M  END
$$$$

     RDKit          3D

 29 29  0  0  0  0  0  0  0  0999 V2000
    2.6222   -1.4721   -0.9186 C   0  0  0  0  0  0  0  0  0  0  0  0
    1.3767   -0.8622   -0.8213 O   0  0  0  0  0  0  0  0  0  0  0  0
    1.1349   -0.5364    0.5135 C   0  0  2  0  0  0  0  0  0  0  0  0
    0.0466   -1.2190    0.9297 O   0  0  0  0  0  0  0  0  0  0  0  0
   -1.1768   -0.7082    0.8351 C   0  0  2  0  0  0  0  0  0  0  0  0
   -1.8925   -1.3821   -0.3463 C   0  0  0  0  0  0  0  0  0  0  0  0
   -1.9238   -2.7493   -0.0471 O   0  0  0  0  0  0  0  0  0  0  0  0
   -1.3328    0.7597    0.6904 C   0  0  2  0  0  0  0  0  0  0  0  0
   -2.5766    1.1031   -0.0102 N   0  0  0  0  0  0  0  0  0  0  0  0
   -0.2180    1.4308   -0.0401 C   0  0  2  0  0  0  0  0  0  0  0  0
   -0.1884    1.1252   -1.3913 O   0  0  0  0  0  0  0  0  0  0  0  0
    1.0658    0.9553    0.5997 C   0  0  2  0  0  0  0  0  0  0  0  0
    2.1660    1.5737   -0.0928 N   0  0  0  0  0  0  0  0  0  0  0  0
    2.5958   -2.3953   -0.2841 H   0  0  0  0  0  0  0  0  0  0  0  0
    3.3443   -0.7814   -0.3951 H   0  0  0  0  0  0  0  0  0  0  0  0
    2.9195   -1.6698   -1.9491 H   0  0  0  0  0  0  0  0  0  0  0  0
    2.0048   -0.8552    1.1255 H   0  0  0  0  0  0  0  0  0  0  0  0
   -1.7850   -1.0223    1.7349 H   0  0  0  0  0  0  0  0  0  0  0  0
   -2.9150   -0.9601   -0.4139 H   0  0  0  0  0  0  0  0  0  0  0  0
   -1.3602   -1.2103   -1.2930 H   0  0  0  0  0  0  0  0  0  0  0  0
   -2.5698   -3.2168   -0.6181 H   0  0  0  0  0  0  0  0  0  0  0  0
   -1.4122    1.2498    1.7031 H   0  0  0  0  0  0  0  0  0  0  0  0
   -2.5457    2.1071   -0.3045 H   0  0  0  0  0  0  0  0  0  0  0  0
   -3.3462    0.9157    0.6684 H   0  0  0  0  0  0  0  0  0  0  0  0
   -0.3042    2.5271    0.0840 H   0  0  0  0  0  0  0  0  0  0  0  0
    0.2017    1.9218   -1.8636 H   0  0  0  0  0  0  0  0  0  0  0  0
    1.0791    1.2787    1.6504 H   0  0  0  0  0  0  0  0  0  0  0  0
    3.0418    1.5056    0.4775 H   0  0  0  0  0  0  0  0  0  0  0  0
    1.9480    2.5871   -0.2233 H   0  0  0  0  0  0  0  0  0  0  0  0
  1  2  1  0
  2  3  1  0
  3  4  1  0
  4  5  1  0
  5  6  1  0
  6  7  1  0
  5  8  1  0
  8  9  1  0
  8 10  1  0
 10 11  1  0
 10 12  1  0
 12 13  1  0
 12  3  1  0
  1 14  1  0
  1 15  1  0
  1 16  1  0
  3 17  1  1
  5 18  1  1
  6 19  1  0
  6 20  1  0
  7 21  1  0
  8 22  1  1
  9 23  1  0
  9 24  1  0
 10 25  1  6
 11 26  1  0
 12 27  1  1
 13 28  1  0
 13 29  1  0
M  END
$$$$

     RDKit          3D

 29 29  0  0  0  0  0  0  0  0999 V2000
    3.3287    0.6804    0.3636 C   0  0  0  0  0  0  0  0  0  0  0  0
    2.1454    0.0454    0.6873 O   0  0  0  0  0  0  0  0  0  0  0  0
    1.0885    0.3630   -0.1270 C   0  0  2  0  0  0  0  0  0  0  0  0
    0.0247    0.9551    0.5481 O   0  0  0  0  0  0  0  0  0  0  0  0
   -1.0959    0.8401   -0.2423 C   0  0  2  0  0  0  0  0  0  0  0  0
   -2.0982    1.9507    0.0038 C   0  0  0  0  0  0  0  0  0  0  0  0
   -1.5396    3.1995   -0.2617 O   0  0  0  0  0  0  0  0  0  0  0  0
   -1.7147   -0.5204   -0.0760 C   0  0  2  0  0  0  0  0  0  0  0  0
   -2.3998   -0.6299    1.2114 N   0  0  0  0  0  0  0  0  0  0  0  0
   -0.5646   -1.5259   -0.0494 C   0  0  2  0  0  0  0  0  0  0  0  0
   -0.2726   -1.8998    1.2514 O   0  0  0  0  0  0  0  0  0  0  0  0
    0.5994   -0.9216   -0.7659 C   0  0  2  0  0  0  0  0  0  0  0  0
    1.6879   -1.9074   -0.7650 N   0  0  0  0  0  0  0  0  0  0  0  0
    3.1399    1.7847    0.4440 H   0  0  0  0  0  0  0  0  0  0  0  0
    3.7162    0.4542   -0.6298 H   0  0  0  0  0  0  0  0  0  0  0  0
    4.0873    0.3716    1.1120 H   0  0  0  0  0  0  0  0  0  0  0  0
    1.3808    1.1001   -0.9307 H   0  0  0  0  0  0  0  0  0  0  0  0
   -0.7741    0.9370   -1.3050 H   0  0  0  0  0  0  0  0  0  0  0  0
   -2.4716    1.9570    1.0438 H   0  0  0  0  0  0  0  0  0  0  0  0
   -2.9635    1.8418   -0.6753 H   0  0  0  0  0  0  0  0  0  0  0  0
   -1.4632    3.2987   -1.2426 H   0  0  0  0  0  0  0  0  0  0  0  0
   -2.4217   -0.7532   -0.8751 H   0  0  0  0  0  0  0  0  0  0  0  0
   -2.8743   -1.5443    1.2681 H   0  0  0  0  0  0  0  0  0  0  0  0
   -1.7035   -0.4581    1.9672 H   0  0  0  0  0  0  0  0  0  0  0  0
   -0.9012   -2.4025   -0.5958 H   0  0  0  0  0  0  0  0  0  0  0  0
    0.4744   -1.4291    1.6555 H   0  0  0  0  0  0  0  0  0  0  0  0
    0.3227   -0.7834   -1.8252 H   0  0  0  0  0  0  0  0  0  0  0  0
    1.8204   -2.3025    0.2006 H   0  0  0  0  0  0  0  0  0  0  0  0
    1.4420   -2.7011   -1.3900 H   0  0  0  0  0  0  0  0  0  0  0  0
  1  2  1  0
  2  3  1  0
  3  4  1  0
  4  5  1  0
  5  6  1  0
  6  7  1  0
  5  8  1  0
  8  9  1  0
  8 10  1  0
 10 11  1  0
 10 12  1  0
 12 13  1  0
 12  3  1  0
  1 14  1  0
  1 15  1  0
  1 16  1  0
  3 17  1  6
  5 18  1  6
  6 19  1  0
  6 20  1  0
  7 21  1  0
  8 22  1  6
  9 23  1  0
  9 24  1  0
 10 25  1  6
 11 26  1  0
 12 27  1  6
 13 28  1  0
 13 29  1  0
M  END
$$$$

     RDKit          3D

 29 29  0  0  0  0  0  0  0  0999 V2000
   -3.3414    0.9635   -0.3400 C   0  0  0  0  0  0  0  0  0  0  0  0
   -2.2160    0.1849   -0.4921 O   0  0  0  0  0  0  0  0  0  0  0  0
   -1.1111    0.6904    0.1849 C   0  0  2  0  0  0  0  0  0  0  0  0
   -0.1315    0.9527   -0.7718 O   0  0  0  0  0  0  0  0  0  0  0  0
    1.1433    0.8211   -0.2432 C   0  0  2  0  0  0  0  0  0  0  0  0
    2.1843    1.5291   -1.0563 C   0  0  0  0  0  0  0  0  0  0  0  0
    3.4217    1.3347   -0.4414 O   0  0  0  0  0  0  0  0  0  0  0  0
    1.4787   -0.6496   -0.1400 C   0  0  2  0  0  0  0  0  0  0  0  0
    2.0252   -1.1661   -1.3595 N   0  0  0  0  0  0  0  0  0  0  0  0
    0.2298   -1.3766    0.3111 C   0  0  2  0  0  0  0  0  0  0  0  0
   -0.5018   -1.8388   -0.7732 O   0  0  0  0  0  0  0  0  0  0  0  0
   -0.6008   -0.3919    1.1110 C   0  0  2  0  0  0  0  0  0  0  0  0
   -1.7142   -1.0942    1.7613 N   0  0  0  0  0  0  0  0  0  0  0  0
   -3.6681    1.0739    0.7146 H   0  0  0  0  0  0  0  0  0  0  0  0
   -3.2044    1.9913   -0.7435 H   0  0  0  0  0  0  0  0  0  0  0  0
   -4.1746    0.4458   -0.8626 H   0  0  0  0  0  0  0  0  0  0  0  0
   -1.3125    1.6209    0.7268 H   0  0  0  0  0  0  0  0  0  0  0  0
    1.1475    1.2734    0.7711 H   0  0  0  0  0  0  0  0  0  0  0  0
    2.2102    1.1712   -2.1103 H   0  0  0  0  0  0  0  0  0  0  0  0
    1.9830    2.6257   -1.0454 H   0  0  0  0  0  0  0  0  0  0  0  0
    3.2670    1.4405    0.5297 H   0  0  0  0  0  0  0  0  0  0  0  0
    2.2721   -0.7359    0.6451 H   0  0  0  0  0  0  0  0  0  0  0  0
    1.2942   -1.4778   -2.0107 H   0  0  0  0  0  0  0  0  0  0  0  0
    2.6280   -2.0135   -1.1658 H   0  0  0  0  0  0  0  0  0  0  0  0
    0.4713   -2.2233    0.9792 H   0  0  0  0  0  0  0  0  0  0  0  0
   -0.4004   -2.8299   -0.8384 H   0  0  0  0  0  0  0  0  0  0  0  0
    0.0380   -0.0110    1.9145 H   0  0  0  0  0  0  0  0  0  0  0  0
   -1.2674   -1.8714    2.3023 H   0  0  0  0  0  0  0  0  0  0  0  0
   -2.1502   -0.4390    2.4424 H   0  0  0  0  0  0  0  0  0  0  0  0
  1  2  1  0
  2  3  1  0
  3  4  1  0
  4  5  1  0
  5  6  1  0
  6  7  1  0
  5  8  1  0
  8  9  1  0
  8 10  1  0
 10 11  1  0
 10 12  1  0
 12 13  1  0
 12  3  1  0
  1 14  1  0
  1 15  1  0
  1 16  1  0
  3 17  1  1
  5 18  1  1
  6 19  1  0
  6 20  1  0
  7 21  1  0
  8 22  1  1
  9 23  1  0
  9 24  1  0
 10 25  1  1
 11 26  1  0
 12 27  1  1
 13 28  1  0
 13 29  1  0
M  END
$$$$

     RDKit          3D

 29 29  0  0  0  0  0  0  0  0999 V2000
    2.9840    1.7233    0.0306 C   0  0  0  0  0  0  0  0  0  0  0  0
    2.1011    0.7820    0.5602 O   0  0  0  0  0  0  0  0  0  0  0  0
    1.0001    0.6156   -0.2600 C   0  0  2  0  0  0  0  0  0  0  0  0
   -0.1304    0.9689    0.4424 O   0  0  0  0  0  0  0  0  0  0  0  0
   -1.2861    0.5380   -0.2050 C   0  0  2  0  0  0  0  0  0  0  0  0
   -2.5008    1.1208    0.4850 C   0  0  0  0  0  0  0  0  0  0  0  0
   -2.4531    2.5029    0.4512 O   0  0  0  0  0  0  0  0  0  0  0  0
   -1.3978   -0.9631   -0.2634 C   0  0  2  0  0  0  0  0  0  0  0  0
   -2.4399   -1.4729    0.6073 N   0  0  0  0  0  0  0  0  0  0  0  0
   -0.0347   -1.5624    0.0948 C   0  0  2  0  0  0  0  0  0  0  0  0
    0.1626   -1.4793    1.4500 O   0  0  0  0  0  0  0  0  0  0  0  0
    0.9897   -0.8276   -0.7165 C   0  0  2  0  0  0  0  0  0  0  0  0
    2.3089   -1.3756   -0.6116 N   0  0  0  0  0  0  0  0  0  0  0  0
    2.4629    2.6929   -0.0684 H   0  0  0  0  0  0  0  0  0  0  0  0
    3.2827    1.3889   -0.9832 H   0  0  0  0  0  0  0  0  0  0  0  0
    3.8385    1.8720    0.6916 H   0  0  0  0  0  0  0  0  0  0  0  0
    1.1170    1.2909   -1.1395 H   0  0  0  0  0  0  0  0  0  0  0  0
   -1.2643    0.9865   -1.2293 H   0  0  0  0  0  0  0  0  0  0  0  0
   -3.3996    0.7922   -0.0821 H   0  0  0  0  0  0  0  0  0  0  0  0
   -2.5669    0.7845    1.5485 H   0  0  0  0  0  0  0  0  0  0  0  0
   -2.6191    2.7922   -0.4820 H   0  0  0  0  0  0  0  0  0  0  0  0
   -1.5826   -1.2440   -1.3315 H   0  0  0  0  0  0  0  0  0  0  0  0
   -2.0884   -1.7380    1.5466 H   0  0  0  0  0  0  0  0  0  0  0  0
   -2.8356   -2.3318    0.1562 H   0  0  0  0  0  0  0  0  0  0  0  0
   -0.0516   -2.6477   -0.1722 H   0  0  0  0  0  0  0  0  0  0  0  0
    0.7719   -0.7774    1.7403 H   0  0  0  0  0  0  0  0  0  0  0  0
    0.6271   -0.8277   -1.7793 H   0  0  0  0  0  0  0  0  0  0  0  0
    2.3562   -2.3763   -0.8424 H   0  0  0  0  0  0  0  0  0  0  0  0
    2.6482   -1.2278    0.3618 H   0  0  0  0  0  0  0  0  0  0  0  0
  1  2  1  0
  2  3  1  0
  3  4  1  0
  4  5  1  0
  5  6  1  0
  6  7  1  0
  5  8  1  0
  8  9  1  0
  8 10  1  0
 10 11  1  0
 10 12  1  0
 12 13  1  0
 12  3  1  0
  1 14  1  0
  1 15  1  0
  1 16  1  0
  3 17  1  6
  5 18  1  6
  6 19  1  0
  6 20  1  0
  7 21  1  0
  8 22  1  6
  9 23  1  0
  9 24  1  0
 10 25  1  6
 11 26  1  0
 12 27  1  6
 13 28  1  0
 13 29  1  0
M  END
$$$$

     RDKit          3D

 29 29  0  0  0  0  0  0  0  0999 V2000
    3.1096    1.4976    0.3416 C   0  0  0  0  0  0  0  0  0  0  0  0
    2.2354    0.5809    0.9146 O   0  0  0  0  0  0  0  0  0  0  0  0
    1.1385    0.4104    0.0830 C   0  0  2  0  0  0  0  0  0  0  0  0
   -0.0315    0.8700    0.7246 O   0  0  0  0  0  0  0  0  0  0  0  0
   -1.0019    0.8472   -0.2763 C   0  0  2  0  0  0  0  0  0  0  0  0
   -2.1154    1.8096    0.0293 C   0  0  0  0  0  0  0  0  0  0  0  0
   -2.7765    1.5593    1.2003 O   0  0  0  0  0  0  0  0  0  0  0  0
   -1.4530   -0.5714   -0.4223 C   0  0  2  0  0  0  0  0  0  0  0  0
   -2.0757   -1.0535    0.8128 N   0  0  0  0  0  0  0  0  0  0  0  0
   -0.3094   -1.4222   -0.8457 C   0  0  2  0  0  0  0  0  0  0  0  0
   -0.5587   -2.7284   -0.3687 O   0  0  0  0  0  0  0  0  0  0  0  0
    1.0262   -1.0077   -0.3665 C   0  0  2  0  0  0  0  0  0  0  0  0
    1.5441   -1.9120    0.6732 N   0  0  0  0  0  0  0  0  0  0  0  0
    2.6022    2.4669    0.2047 H   0  0  0  0  0  0  0  0  0  0  0  0
    3.9859    1.5871    1.0111 H   0  0  0  0  0  0  0  0  0  0  0  0
    3.3974    1.1423   -0.6696 H   0  0  0  0  0  0  0  0  0  0  0  0
    1.2418    1.0470   -0.8205 H   0  0  0  0  0  0  0  0  0  0  0  0
   -0.5644    1.1580   -1.2529 H   0  0  0  0  0  0  0  0  0  0  0  0
   -1.6268    2.8210    0.1387 H   0  0  0  0  0  0  0  0  0  0  0  0
   -2.7999    1.9197   -0.8356 H   0  0  0  0  0  0  0  0  0  0  0  0
   -2.6438    2.2350    1.8883 H   0  0  0  0  0  0  0  0  0  0  0  0
   -2.2725   -0.6186   -1.1970 H   0  0  0  0  0  0  0  0  0  0  0  0
   -1.8295   -2.0574    0.9461 H   0  0  0  0  0  0  0  0  0  0  0  0
   -3.1184   -1.0073    0.7650 H   0  0  0  0  0  0  0  0  0  0  0  0
   -0.3565   -1.5248   -1.9685 H   0  0  0  0  0  0  0  0  0  0  0  0
    0.1870   -3.3001   -0.6798 H   0  0  0  0  0  0  0  0  0  0  0  0
    1.7516   -1.1357   -1.2244 H   0  0  0  0  0  0  0  0  0  0  0  0
    2.4491   -1.5352    1.0205 H   0  0  0  0  0  0  0  0  0  0  0  0
    0.8654   -2.0778    1.4223 H   0  0  0  0  0  0  0  0  0  0  0  0
  1  2  1  0
  2  3  1  0
  3  4  1  0
  4  5  1  0
  5  6  1  0
  6  7  1  0
  5  8  1  0
  8  9  1  0
  8 10  1  0
 10 11  1  0
 10 12  1  0
 12 13  1  0
 12  3  1  0
  1 14  1  0
  1 15  1  0
  1 16  1  0
  3 17  1  6
  5 18  1  6
  6 19  1  0
  6 20  1  0
  7 21  1  0
  8 22  1  6
  9 23  1  0
  9 24  1  0
 10 25  1  6
 11 26  1  0
 12 27  1  6
 13 28  1  0
 13 29  1  0
M  END
$$$$

     RDKit          3D

 29 29  0  0  0  0  0  0  0  0999 V2000
    3.1495    1.3109   -0.0249 C   0  0  0  0  0  0  0  0  0  0  0  0
    2.2485    0.5948    0.7775 O   0  0  0  0  0  0  0  0  0  0  0  0
    1.1162    0.2999    0.0103 C   0  0  2  0  0  0  0  0  0  0  0  0
    0.0062    0.9101    0.5977 O   0  0  0  0  0  0  0  0  0  0  0  0
   -1.0776    0.7266   -0.2557 C   0  0  2  0  0  0  0  0  0  0  0  0
   -2.2227    1.6382    0.1248 C   0  0  0  0  0  0  0  0  0  0  0  0
   -1.8670    2.9690    0.0607 O   0  0  0  0  0  0  0  0  0  0  0  0
   -1.4489   -0.7075   -0.2957 C   0  0  2  0  0  0  0  0  0  0  0  0
   -2.7205   -1.0415    0.2323 N   0  0  0  0  0  0  0  0  0  0  0  0
   -0.4089   -1.5422    0.4608 C   0  0  2  0  0  0  0  0  0  0  0  0
   -0.5253   -1.2119    1.7942 O   0  0  0  0  0  0  0  0  0  0  0  0
    0.9779   -1.1901   -0.0561 C   0  0  2  0  0  0  0  0  0  0  0  0
    1.9437   -1.8938    0.7584 N   0  0  0  0  0  0  0  0  0  0  0  0
    4.0582    1.5580    0.5600 H   0  0  0  0  0  0  0  0  0  0  0  0
    2.6922    2.2829   -0.3624 H   0  0  0  0  0  0  0  0  0  0  0  0
    3.3789    0.7645   -0.9689 H   0  0  0  0  0  0  0  0  0  0  0  0
    1.2160    0.7003   -1.0209 H   0  0  0  0  0  0  0  0  0  0  0  0
   -0.7326    1.0835   -1.2699 H   0  0  0  0  0  0  0  0  0  0  0  0
   -3.0612    1.4781   -0.5700 H   0  0  0  0  0  0  0  0  0  0  0  0
   -2.5018    1.4349    1.1950 H   0  0  0  0  0  0  0  0  0  0  0  0
   -1.1645    3.1628   -0.5949 H   0  0  0  0  0  0  0  0  0  0  0  0
   -1.3836   -1.0731   -1.3596 H   0  0  0  0  0  0  0  0  0  0  0  0
   -3.0261   -0.5315    1.0581 H   0  0  0  0  0  0  0  0  0  0  0  0
   -3.4385   -1.3369   -0.4351 H   0  0  0  0  0  0  0  0  0  0  0  0
   -0.6455   -2.6025    0.3287 H   0  0  0  0  0  0  0  0  0  0  0  0
    0.3191   -1.1882    2.2818 H   0  0  0  0  0  0  0  0  0  0  0  0
    1.0035   -1.5492   -1.1213 H   0  0  0  0  0  0  0  0  0  0  0  0
    1.5000   -2.6533    1.3182 H   0  0  0  0  0  0  0  0  0  0  0  0
    2.6149   -2.3928    0.1003 H   0  0  0  0  0  0  0  0  0  0  0  0
  1  2  1  0
  2  3  1  0
  3  4  1  0
  4  5  1  0
  5  6  1  0
  6  7  1  0
  5  8  1  0
  8  9  1  0
  8 10  1  0
 10 11  1  0
 10 12  1  0
 12 13  1  0
 12  3  1  0
  1 14  1  0
  1 15  1  0
  1 16  1  0
  3 17  1  6
  5 18  1  6
  6 19  1  0
  6 20  1  0
  7 21  1  0
  8 22  1  6
  9 23  1  0
  9 24  1  0
 10 25  1  1
 11 26  1  0
 12 27  1  6
 13 28  1  0
 13 29  1  0
M  END
$$$$
