
     RDKit          3D

 23 24  0  0  0  0  0  0  0  0999 V2000
    4.7684    0.1040   -0.0811 C   0  0  0  0  0  0  0  0  0  0  0  0
    3.2767    0.1073   -0.0795 C   0  0  0  0  0  0  0  0  0  0  0  0
    2.5582    0.8011   -0.9775 N   0  0  0  0  0  0  0  0  0  0  0  0
    1.2655    0.5963   -0.7066 N   0  0  0  0  0  0  0  0  0  0  0  0
    1.1385   -0.2174    0.3505 C   0  0  0  0  0  0  0  0  0  0  0  0
   -0.0779   -0.6950    0.9770 C   0  0  0  0  0  0  0  0  0  0  0  0
    0.0175   -1.4769    1.9870 O   0  0  0  0  0  0  0  0  0  0  0  0
   -1.3608   -0.3306    0.5155 N   0  0  0  0  0  0  0  0  0  0  0  0
   -2.7039   -0.6595    0.9463 C   0  0  0  0  0  0  0  0  0  0  0  0
   -3.2665    0.2555   -0.0730 C   0  0  0  0  0  0  0  0  0  0  0  0
   -4.0705   -0.4143   -1.0239 O   0  0  0  0  0  0  0  0  0  0  0  0
   -1.8681    0.4910   -0.5356 C   0  0  0  0  0  0  0  0  0  0  0  0
    2.4191   -0.5154    0.7325 N   0  0  0  0  0  0  0  0  0  0  0  0
    5.1440   -0.3517    0.8571 H   0  0  0  0  0  0  0  0  0  0  0  0
    5.1748   -0.4471   -0.9614 H   0  0  0  0  0  0  0  0  0  0  0  0
    5.0710    1.1892   -0.1505 H   0  0  0  0  0  0  0  0  0  0  0  0
    0.5338    1.0383   -1.2788 H   0  0  0  0  0  0  0  0  0  0  0  0
   -2.9943   -1.7154    0.7728 H   0  0  0  0  0  0  0  0  0  0  0  0
   -2.9561   -0.3218    1.9733 H   0  0  0  0  0  0  0  0  0  0  0  0
   -3.7893    1.1579    0.3207 H   0  0  0  0  0  0  0  0  0  0  0  0
   -5.0166   -0.2742   -0.7031 H   0  0  0  0  0  0  0  0  0  0  0  0
   -1.6344    0.1010   -1.5528 H   0  0  0  0  0  0  0  0  0  0  0  0
   -1.6293    1.5774   -0.4894 H   0  0  0  0  0  0  0  0  0  0  0  0
  1  2  1  0
  2  3  2  0
  3  4  1  0
  4  5  1  0
  5  6  1  0
  6  7  2  0
  6  8  1  0
  8  9  1  0
  9 10  1  0
 10 11  1  0
 10 12  1  0
  5 13  2  0
 13  2  1  0
 12  8  1  0
  1 14  1  0
  1 15  1  0
  1 16  1  0
  4 17  1  0
  9 18  1  0
  9 19  1  0
 10 20  1  0
 11 21  1  0
 12 22  1  0
 12 23  1  0
M  END
$$$$

     RDKit          3D

 23 24  0  0  0  0  0  0  0  0999 V2000
    4.7207    0.3348   -0.1560 C   0  0  0  0  0  0  0  0  0  0  0  0
    3.2321    0.2878   -0.0595 C   0  0  0  0  0  0  0  0  0  0  0  0
    2.4468    0.9998    0.7778 N   0  0  0  0  0  0  0  0  0  0  0  0
    1.1723    0.6814    0.5635 N   0  0  0  0  0  0  0  0  0  0  0  0
    1.0985   -0.2323   -0.4045 C   0  0  0  0  0  0  0  0  0  0  0  0
   -0.0823   -0.8769   -0.9765 C   0  0  0  0  0  0  0  0  0  0  0  0
    0.0844   -1.7327   -1.9061 O   0  0  0  0  0  0  0  0  0  0  0  0
   -1.3905   -0.5987   -0.5510 N   0  0  0  0  0  0  0  0  0  0  0  0
   -1.9675    0.2744    0.4371 C   0  0  0  0  0  0  0  0  0  0  0  0
   -3.3506   -0.1444    0.0887 C   0  0  0  0  0  0  0  0  0  0  0  0
   -4.1295    0.8637   -0.4625 O   0  0  0  0  0  0  0  0  0  0  0  0
   -2.7057   -1.0473   -0.8998 C   0  0  0  0  0  0  0  0  0  0  0  0
    2.3741   -0.4618   -0.7752 N   0  0  0  0  0  0  0  0  0  0  0  0
    5.2095    0.0239    0.7889 H   0  0  0  0  0  0  0  0  0  0  0  0
    5.0416    1.3753   -0.4411 H   0  0  0  0  0  0  0  0  0  0  0  0
    5.0232   -0.3095   -1.0068 H   0  0  0  0  0  0  0  0  0  0  0  0
    0.3884    1.1096    1.0978 H   0  0  0  0  0  0  0  0  0  0  0  0
   -1.8108    1.3476    0.1901 H   0  0  0  0  0  0  0  0  0  0  0  0
   -1.6968    0.0018    1.4782 H   0  0  0  0  0  0  0  0  0  0  0  0
   -3.8367   -0.7306    0.8936 H   0  0  0  0  0  0  0  0  0  0  0  0
   -3.9715    1.6787    0.1121 H   0  0  0  0  0  0  0  0  0  0  0  0
   -2.9005   -2.1295   -0.7772 H   0  0  0  0  0  0  0  0  0  0  0  0
   -2.9490   -0.7150   -1.9451 H   0  0  0  0  0  0  0  0  0  0  0  0
  1  2  1  0
  2  3  2  0
  3  4  1  0
  4  5  1  0
  5  6  1  0
  6  7  2  0
  6  8  1  0
  8  9  1  0
  9 10  1  0
 10 11  1  0
 10 12  1  0
  5 13  2  0
 13  2  1  0
 12  8  1  0
  1 14  1  0
  1 15  1  0
  1 16  1  0
  4 17  1  0
  9 18  1  0
  9 19  1  0
 10 20  1  0
 11 21  1  0
 12 22  1  0
 12 23  1  0
M  END
$$$$

     RDKit          3D

 23 24  0  0  0  0  0  0  0  0999 V2000
   -3.8022    0.1537   -1.3544 C   0  0  0  0  0  0  0  0  0  0  0  0
   -2.8189   -0.4067   -0.4186 C   0  0  0  0  0  0  0  0  0  0  0  0
   -3.0748   -1.3504    0.5017 N   0  0  0  0  0  0  0  0  0  0  0  0
   -1.9698   -1.6234    1.1722 N   0  0  0  0  0  0  0  0  0  0  0  0
   -1.0206   -0.8369    0.6575 C   0  0  0  0  0  0  0  0  0  0  0  0
    0.3653   -0.8243    1.1194 C   0  0  0  0  0  0  0  0  0  0  0  0
    0.7249   -1.5957    2.0667 O   0  0  0  0  0  0  0  0  0  0  0  0
    1.3367    0.0274    0.5426 N   0  0  0  0  0  0  0  0  0  0  0  0
    2.7373    0.2534    0.7815 C   0  0  0  0  0  0  0  0  0  0  0  0
    2.8154    1.1808   -0.4189 C   0  0  0  0  0  0  0  0  0  0  0  0
    3.5343    0.5492   -1.4368 O   0  0  0  0  0  0  0  0  0  0  0  0
    1.3175    1.0134   -0.5173 C   0  0  0  0  0  0  0  0  0  0  0  0
   -1.5183   -0.0741   -0.3279 N   0  0  0  0  0  0  0  0  0  0  0  0
   -4.1626   -0.6282   -2.0518 H   0  0  0  0  0  0  0  0  0  0  0  0
   -3.3432    0.9483   -1.9505 H   0  0  0  0  0  0  0  0  0  0  0  0
   -4.6988    0.5605   -0.8228 H   0  0  0  0  0  0  0  0  0  0  0  0
   -1.8821   -2.3242    1.9509 H   0  0  0  0  0  0  0  0  0  0  0  0
    2.9292    0.7695    1.7527 H   0  0  0  0  0  0  0  0  0  0  0  0
    3.3924   -0.6397    0.7264 H   0  0  0  0  0  0  0  0  0  0  0  0
    3.1632    2.2070   -0.1989 H   0  0  0  0  0  0  0  0  0  0  0  0
    4.2446    0.0179   -0.9968 H   0  0  0  0  0  0  0  0  0  0  0  0
    0.7973    1.9596   -0.1872 H   0  0  0  0  0  0  0  0  0  0  0  0
    0.9333    0.6627   -1.4900 H   0  0  0  0  0  0  0  0  0  0  0  0
  1  2  1  0
  2  3  2  0
  3  4  1  0
  4  5  1  0
  5  6  1  0
  6  7  2  0
  6  8  1  0
  8  9  1  0
  9 10  1  0
 10 11  1  0
 10 12  1  0
  5 13  2  0
 13  2  1  0
 12  8  1  0
  1 14  1  0
  1 15  1  0
  1 16  1  0
  4 17  1  0
  9 18  1  0
  9 19  1  0
 10 20  1  0
 11 21  1  0
 12 22  1  0
 12 23  1  0
M  END
$$$$

     RDKit          3D

 23 24  0  0  0  0  0  0  0  0999 V2000
   -3.4641    1.9772    0.2258 C   0  0  0  0  0  0  0  0  0  0  0  0
   -2.7756    0.7521   -0.2469 C   0  0  0  0  0  0  0  0  0  0  0  0
   -3.2976   -0.2320   -0.9885 N   0  0  0  0  0  0  0  0  0  0  0  0
   -2.3439   -1.1498   -1.1954 N   0  0  0  0  0  0  0  0  0  0  0  0
   -1.2346   -0.7235   -0.5771 C   0  0  0  0  0  0  0  0  0  0  0  0
    0.0519   -1.3887   -0.5270 C   0  0  0  0  0  0  0  0  0  0  0  0
    0.1678   -2.5041   -1.1297 O   0  0  0  0  0  0  0  0  0  0  0  0
    1.1740   -0.8738    0.1467 N   0  0  0  0  0  0  0  0  0  0  0  0
    1.4560    0.3073    0.9211 C   0  0  0  0  0  0  0  0  0  0  0  0
    2.8904    0.1893    0.4459 C   0  0  0  0  0  0  0  0  0  0  0  0
    3.8456    0.4926    1.4076 O   0  0  0  0  0  0  0  0  0  0  0  0
    2.5321   -1.2831    0.3679 C   0  0  0  0  0  0  0  0  0  0  0  0
   -1.5118    0.4522    0.0058 N   0  0  0  0  0  0  0  0  0  0  0  0
   -2.7777    2.8179    0.3695 H   0  0  0  0  0  0  0  0  0  0  0  0
   -4.1999    2.2645   -0.5432 H   0  0  0  0  0  0  0  0  0  0  0  0
   -3.9218    1.7477    1.2091 H   0  0  0  0  0  0  0  0  0  0  0  0
   -2.4468   -2.0396   -1.7418 H   0  0  0  0  0  0  0  0  0  0  0  0
    1.4241    0.1590    2.0392 H   0  0  0  0  0  0  0  0  0  0  0  0
    0.9382    1.2307    0.5933 H   0  0  0  0  0  0  0  0  0  0  0  0
    3.0556    0.6463   -0.5408 H   0  0  0  0  0  0  0  0  0  0  0  0
    4.6741    0.7381    0.9233 H   0  0  0  0  0  0  0  0  0  0  0  0
    3.0183   -1.8307   -0.4597 H   0  0  0  0  0  0  0  0  0  0  0  0
    2.7457   -1.7495    1.3600 H   0  0  0  0  0  0  0  0  0  0  0  0
  1  2  1  0
  2  3  2  0
  3  4  1  0
  4  5  1  0
  5  6  1  0
  6  7  2  0
  6  8  1  0
  8  9  1  0
  9 10  1  0
 10 11  1  0
 10 12  1  0
  5 13  2  0
 13  2  1  0
 12  8  1  0
  1 14  1  0
  1 15  1  0
  1 16  1  0
  4 17  1  0
  9 18  1  0
  9 19  1  0
 10 20  1  0
 11 21  1  0
 12 22  1  0
 12 23  1  0
M  END
$$$$

     RDKit          3D

 23 24  0  0  0  0  0  0  0  0999 V2000
    3.7080    0.2025   -1.2522 C   0  0  0  0  0  0  0  0  0  0  0  0
    2.8395   -0.2533   -0.1187 C   0  0  0  0  0  0  0  0  0  0  0  0
    3.2005   -0.9506    0.9750 N   0  0  0  0  0  0  0  0  0  0  0  0
    2.1507   -1.1613    1.7446 N   0  0  0  0  0  0  0  0  0  0  0  0
    1.0758   -0.6030    1.1664 C   0  0  0  0  0  0  0  0  0  0  0  0
   -0.2926   -0.6180    1.7112 C   0  0  0  0  0  0  0  0  0  0  0  0
   -0.5083   -1.1952    2.8115 O   0  0  0  0  0  0  0  0  0  0  0  0
   -1.3724   -0.0045    1.0374 N   0  0  0  0  0  0  0  0  0  0  0  0
   -2.7852    0.1581    1.2855 C   0  0  0  0  0  0  0  0  0  0  0  0
   -2.9802    0.9233   -0.0025 C   0  0  0  0  0  0  0  0  0  0  0  0
   -3.7906    0.3000   -0.9401 O   0  0  0  0  0  0  0  0  0  0  0  0
   -1.4951    0.7248   -0.2034 C   0  0  0  0  0  0  0  0  0  0  0  0
    1.5033   -0.0464    0.0221 N   0  0  0  0  0  0  0  0  0  0  0  0
    4.4532   -0.6159   -1.4431 H   0  0  0  0  0  0  0  0  0  0  0  0
    3.1322    0.3050   -2.1838 H   0  0  0  0  0  0  0  0  0  0  0  0
    4.2072    1.1507   -0.9557 H   0  0  0  0  0  0  0  0  0  0  0  0
    2.1799   -1.6802    2.6492 H   0  0  0  0  0  0  0  0  0  0  0  0
   -3.3808   -0.7917    1.2473 H   0  0  0  0  0  0  0  0  0  0  0  0
   -3.0392    0.7813    2.1785 H   0  0  0  0  0  0  0  0  0  0  0  0
   -3.2675    1.9819    0.1028 H   0  0  0  0  0  0  0  0  0  0  0  0
   -3.2980   -0.4565   -1.3612 H   0  0  0  0  0  0  0  0  0  0  0  0
   -1.2848    0.1396   -1.1123 H   0  0  0  0  0  0  0  0  0  0  0  0
   -0.9555    1.7093   -0.2124 H   0  0  0  0  0  0  0  0  0  0  0  0
  1  2  1  0
  2  3  2  0
  3  4  1  0
  4  5  1  0
  5  6  1  0
  6  7  2  0
  6  8  1  0
  8  9  1  0
  9 10  1  0
 10 11  1  0
 10 12  1  0
  5 13  2  0
 13  2  1  0
 12  8  1  0
  1 14  1  0
  1 15  1  0
  1 16  1  0
  4 17  1  0
  9 18  1  0
  9 19  1  0
 10 20  1  0
 11 21  1  0
 12 22  1  0
 12 23  1  0
M  END
$$$$

     RDKit          3D

 23 24  0  0  0  0  0  0  0  0999 V2000
    3.8246    1.0950    0.8595 C   0  0  0  0  0  0  0  0  0  0  0  0
    2.8665    0.0668    0.4332 C   0  0  0  0  0  0  0  0  0  0  0  0
    3.2282   -1.1702    0.0164 N   0  0  0  0  0  0  0  0  0  0  0  0
    2.1290   -1.8575   -0.2978 N   0  0  0  0  0  0  0  0  0  0  0  0
    1.0544   -1.0786   -0.0891 C   0  0  0  0  0  0  0  0  0  0  0  0
   -0.3438   -1.4481   -0.3092 C   0  0  0  0  0  0  0  0  0  0  0  0
   -0.6687   -2.5870   -0.7348 O   0  0  0  0  0  0  0  0  0  0  0  0
   -1.3921   -0.5043   -0.0403 N   0  0  0  0  0  0  0  0  0  0  0  0
   -2.8378   -0.4966   -0.1293 C   0  0  0  0  0  0  0  0  0  0  0  0
   -2.7341    1.0063   -0.4165 C   0  0  0  0  0  0  0  0  0  0  0  0
   -3.7475    1.7447    0.1445 O   0  0  0  0  0  0  0  0  0  0  0  0
   -1.4787    0.8644    0.4408 C   0  0  0  0  0  0  0  0  0  0  0  0
    1.5256    0.0976    0.3590 N   0  0  0  0  0  0  0  0  0  0  0  0
    4.4097    1.4894   -0.0176 H   0  0  0  0  0  0  0  0  0  0  0  0
    3.2749    1.9133    1.3725 H   0  0  0  0  0  0  0  0  0  0  0  0
    4.5841    0.6405    1.5282 H   0  0  0  0  0  0  0  0  0  0  0  0
    2.1243   -2.8306   -0.6440 H   0  0  0  0  0  0  0  0  0  0  0  0
   -3.2862   -1.0866   -0.9257 H   0  0  0  0  0  0  0  0  0  0  0  0
   -3.2745   -0.6470    0.8961 H   0  0  0  0  0  0  0  0  0  0  0  0
   -2.4929    1.1814   -1.4693 H   0  0  0  0  0  0  0  0  0  0  0  0
   -4.3879    1.2497    0.6829 H   0  0  0  0  0  0  0  0  0  0  0  0
   -0.6476    1.5159    0.1635 H   0  0  0  0  0  0  0  0  0  0  0  0
   -1.7296    0.8415    1.5231 H   0  0  0  0  0  0  0  0  0  0  0  0
  1  2  1  0
  2  3  2  0
  3  4  1  0
  4  5  1  0
  5  6  1  0
  6  7  2  0
  6  8  1  0
  8  9  1  0
  9 10  1  0
 10 11  1  0
 10 12  1  0
  5 13  2  0
 13  2  1  0
 12  8  1  0
  1 14  1  0
  1 15  1  0
  1 16  1  0
  4 17  1  0
  9 18  1  0
  9 19  1  0
 10 20  1  0
 11 21  1  0
 12 22  1  0
 12 23  1  0
M  END
$$$$

     RDKit          3D

 23 24  0  0  0  0  0  0  0  0999 V2000
    3.1608   -0.8581   -2.2863 C   0  0  0  0  0  0  0  0  0  0  0  0
    2.5925   -0.8492   -0.8937 C   0  0  0  0  0  0  0  0  0  0  0  0
    3.1741   -1.3080    0.2358 N   0  0  0  0  0  0  0  0  0  0  0  0
    2.3491   -1.1195    1.2604 N   0  0  0  0  0  0  0  0  0  0  0  0
    1.2199   -0.5371    0.8190 C   0  0  0  0  0  0  0  0  0  0  0  0
    0.0509   -0.1540    1.6117 C   0  0  0  0  0  0  0  0  0  0  0  0
    0.0825   -0.3876    2.8585 O   0  0  0  0  0  0  0  0  0  0  0  0
   -1.0552    0.4510    0.9834 N   0  0  0  0  0  0  0  0  0  0  0  0
   -2.3383    0.9499    1.4076 C   0  0  0  0  0  0  0  0  0  0  0  0
   -2.8581    0.5885    0.0117 C   0  0  0  0  0  0  0  0  0  0  0  0
   -3.7452    1.4834   -0.5256 O   0  0  0  0  0  0  0  0  0  0  0  0
   -1.3910    0.8378   -0.3614 C   0  0  0  0  0  0  0  0  0  0  0  0
    1.3913   -0.3798   -0.5097 N   0  0  0  0  0  0  0  0  0  0  0  0
    2.3756   -0.9789   -3.0429 H   0  0  0  0  0  0  0  0  0  0  0  0
    3.7014    0.0882   -2.4924 H   0  0  0  0  0  0  0  0  0  0  0  0
    3.9237   -1.6631   -2.3099 H   0  0  0  0  0  0  0  0  0  0  0  0
    2.5060   -1.3669    2.2672 H   0  0  0  0  0  0  0  0  0  0  0  0
   -2.3573    2.0567    1.5512 H   0  0  0  0  0  0  0  0  0  0  0  0
   -2.8328    0.4204    2.2236 H   0  0  0  0  0  0  0  0  0  0  0  0
   -3.1251   -0.4724   -0.0018 H   0  0  0  0  0  0  0  0  0  0  0  0
   -4.6009    1.0627   -0.8439 H   0  0  0  0  0  0  0  0  0  0  0  0
   -1.0082    0.2112   -1.1667 H   0  0  0  0  0  0  0  0  0  0  0  0
   -1.2158    1.9249   -0.5347 H   0  0  0  0  0  0  0  0  0  0  0  0
  1  2  1  0
  2  3  2  0
  3  4  1  0
  4  5  1  0
  5  6  1  0
  6  7  2  0
  6  8  1  0
  8  9  1  0
  9 10  1  0
 10 11  1  0
 10 12  1  0
  5 13  2  0
 13  2  1  0
 12  8  1  0
  1 14  1  0
  1 15  1  0
  1 16  1  0
  4 17  1  0
  9 18  1  0
  9 19  1  0
 10 20  1  0
 11 21  1  0
 12 22  1  0
 12 23  1  0
M  END
$$$$

     RDKit          3D

 23 24  0  0  0  0  0  0  0  0999 V2000
    4.7170   -0.2332   -0.2865 C   0  0  0  0  0  0  0  0  0  0  0  0
    3.2396   -0.1231   -0.2839 C   0  0  0  0  0  0  0  0  0  0  0  0
    2.4632    0.0178   -1.3689 N   0  0  0  0  0  0  0  0  0  0  0  0
    1.1914    0.0865   -1.0254 N   0  0  0  0  0  0  0  0  0  0  0  0
    1.1319   -0.0118    0.3202 C   0  0  0  0  0  0  0  0  0  0  0  0
   -0.0616    0.0123    1.1600 C   0  0  0  0  0  0  0  0  0  0  0  0
    0.1053   -0.0929    2.4048 O   0  0  0  0  0  0  0  0  0  0  0  0
   -1.3731    0.1491    0.6081 N   0  0  0  0  0  0  0  0  0  0  0  0
   -1.9599    0.2860   -0.6760 C   0  0  0  0  0  0  0  0  0  0  0  0
   -3.3422    0.3124   -0.1060 C   0  0  0  0  0  0  0  0  0  0  0  0
   -4.1218   -0.8180   -0.3822 O   0  0  0  0  0  0  0  0  0  0  0  0
   -2.6692    0.2028    1.2217 C   0  0  0  0  0  0  0  0  0  0  0  0
    2.3972   -0.1398    0.7582 N   0  0  0  0  0  0  0  0  0  0  0  0
    5.2068    0.7682   -0.3398 H   0  0  0  0  0  0  0  0  0  0  0  0
    5.1018   -0.7109    0.6303 H   0  0  0  0  0  0  0  0  0  0  0  0
    5.0600   -0.8925   -1.1327 H   0  0  0  0  0  0  0  0  0  0  0  0
    0.3565    0.1964   -1.6397 H   0  0  0  0  0  0  0  0  0  0  0  0
   -1.8719   -0.6034   -1.3487 H   0  0  0  0  0  0  0  0  0  0  0  0
   -1.7625    1.2313   -1.2214 H   0  0  0  0  0  0  0  0  0  0  0  0
   -3.8952    1.2697   -0.2262 H   0  0  0  0  0  0  0  0  0  0  0  0
   -4.3396   -1.2814    0.4644 H   0  0  0  0  0  0  0  0  0  0  0  0
   -2.8446   -0.7434    1.7754 H   0  0  0  0  0  0  0  0  0  0  0  0
   -2.7292    1.1179    1.8524 H   0  0  0  0  0  0  0  0  0  0  0  0
  1  2  1  0
  2  3  2  0
  3  4  1  0
  4  5  1  0
  5  6  1  0
  6  7  2  0
  6  8  1  0
  8  9  1  0
  9 10  1  0
 10 11  1  0
 10 12  1  0
  5 13  2  0
 13  2  1  0
 12  8  1  0
  1 14  1  0
  1 15  1  0
  1 16  1  0
  4 17  1  0
  9 18  1  0
  9 19  1  0
 10 20  1  0
 11 21  1  0
 12 22  1  0
 12 23  1  0
M  END
$$$$
