
     RDKit          3D

 31 32  0  0  0  0  0  0  0  0999 V2000
    4.9547    0.0213   -0.0227 C   0  0  0  0  0  0  0  0  0  0  0  0
    3.6517   -0.5205    0.1325 N   0  0  0  0  0  0  0  0  0  0  0  0
    2.7127   -0.2353   -0.9635 C   0  0  0  0  0  0  0  0  0  0  0  0
    1.6556   -0.4406    0.1065 C   0  0  0  0  0  0  0  0  0  0  0  0
    0.4347    0.2663   -0.0686 N   0  0  0  0  0  0  0  0  0  0  0  0
   -0.7993   -0.3680    0.1586 C   0  0  0  0  0  0  0  0  0  0  0  0
   -0.7954   -1.5707    0.5188 O   0  0  0  0  0  0  0  0  0  0  0  0
   -2.1262    0.2928    0.0005 C   0  0  1  0  0  0  0  0  0  0  0  0
   -2.0043    1.6639   -0.4135 N   0  0  0  0  0  0  0  0  0  0  0  0
   -2.9203   -0.5473   -0.9761 C   0  0  0  0  0  0  0  0  0  0  0  0
   -4.2106   -0.8567   -0.2572 C   0  0  0  0  0  0  0  0  0  0  0  0
   -3.7791   -0.9376    1.0741 O   0  0  0  0  0  0  0  0  0  0  0  0
   -2.9363    0.1419    1.2680 C   0  0  0  0  0  0  0  0  0  0  0  0
    2.7236    0.2794    0.9413 C   0  0  0  0  0  0  0  0  0  0  0  0
    5.2534    0.7330    0.7707 H   0  0  0  0  0  0  0  0  0  0  0  0
    5.1069    0.5168   -1.0039 H   0  0  0  0  0  0  0  0  0  0  0  0
    5.6840   -0.8335    0.0026 H   0  0  0  0  0  0  0  0  0  0  0  0
    2.8045    0.8382   -1.3002 H   0  0  0  0  0  0  0  0  0  0  0  0
    2.7200   -0.9610   -1.7788 H   0  0  0  0  0  0  0  0  0  0  0  0
    1.6214   -1.4799    0.4189 H   0  0  0  0  0  0  0  0  0  0  0  0
    0.4232    1.2645   -0.3674 H   0  0  0  0  0  0  0  0  0  0  0  0
   -1.8856    1.7537   -1.4392 H   0  0  0  0  0  0  0  0  0  0  0  0
   -2.9094    2.1455   -0.1699 H   0  0  0  0  0  0  0  0  0  0  0  0
   -3.0834   -0.0391   -1.9413 H   0  0  0  0  0  0  0  0  0  0  0  0
   -2.4356   -1.5169   -1.1990 H   0  0  0  0  0  0  0  0  0  0  0  0
   -4.9354   -0.0501   -0.4101 H   0  0  0  0  0  0  0  0  0  0  0  0
   -4.5913   -1.8469   -0.5666 H   0  0  0  0  0  0  0  0  0  0  0  0
   -2.2283   -0.1147    2.0792 H   0  0  0  0  0  0  0  0  0  0  0  0
   -3.5412    1.0262    1.4761 H   0  0  0  0  0  0  0  0  0  0  0  0
    2.7030    0.0244    2.0058 H   0  0  0  0  0  0  0  0  0  0  0  0
    2.7325    1.3507    0.6751 H   0  0  0  0  0  0  0  0  0  0  0  0
  1  2  1  0
  2  3  1  0
  3  4  1  0
  4  5  1  0
  5  6  1  0
  6  7  2  0
  6  8  1  0
  8  9  1  6
  8 10  1  0
 10 11  1  0
 11 12  1  0
 12 13  1  0
  4 14  1  0
 14  2  1  0
 13  8  1  0
  1 15  1  0
  1 16  1  0
  1 17  1  0
  3 18  1  0
  3 19  1  0
  4 20  1  0
  5 21  1  0
  9 22  1  0
  9 23  1  0
 10 24  1  0
 10 25  1  0
 11 26  1  0
 11 27  1  0
 13 28  1  0
 13 29  1  0
 14 30  1  0
 14 31  1  0
M  END
$$$$

     RDKit          3D

 31 32  0  0  0  0  0  0  0  0999 V2000
    4.6101    0.4424   -0.3925 C   0  0  0  0  0  0  0  0  0  0  0  0
    3.7036   -0.6703   -0.3392 N   0  0  0  0  0  0  0  0  0  0  0  0
    2.7181   -0.5938    0.7495 C   0  0  0  0  0  0  0  0  0  0  0  0
    1.7620    0.0007   -0.2270 C   0  0  0  0  0  0  0  0  0  0  0  0
    0.3950   -0.4181   -0.1505 N   0  0  0  0  0  0  0  0  0  0  0  0
   -0.6696    0.5225   -0.0946 C   0  0  0  0  0  0  0  0  0  0  0  0
   -0.3549    1.7369   -0.1156 O   0  0  0  0  0  0  0  0  0  0  0  0
   -2.0458    0.0211   -0.0174 C   0  0  1  0  0  0  0  0  0  0  0  0
   -2.1414   -1.4044   -0.0080 N   0  0  0  0  0  0  0  0  0  0  0  0
   -2.7894    0.5506    1.1949 C   0  0  0  0  0  0  0  0  0  0  0  0
   -4.2162    0.4267    0.7140 C   0  0  0  0  0  0  0  0  0  0  0  0
   -4.2140    0.4210   -0.6516 O   0  0  0  0  0  0  0  0  0  0  0  0
   -2.9359    0.5461   -1.1193 C   0  0  0  0  0  0  0  0  0  0  0  0
    2.6047   -0.5820   -1.3116 C   0  0  0  0  0  0  0  0  0  0  0  0
    5.5925    0.0579   -0.7453 H   0  0  0  0  0  0  0  0  0  0  0  0
    4.6984    1.0006    0.5543 H   0  0  0  0  0  0  0  0  0  0  0  0
    4.2523    1.1385   -1.1962 H   0  0  0  0  0  0  0  0  0  0  0  0
    3.0381    0.0885    1.5654 H   0  0  0  0  0  0  0  0  0  0  0  0
    2.4173   -1.5989    1.1070 H   0  0  0  0  0  0  0  0  0  0  0  0
    1.8462    1.1080   -0.2353 H   0  0  0  0  0  0  0  0  0  0  0  0
    0.2097   -1.4654   -0.1372 H   0  0  0  0  0  0  0  0  0  0  0  0
   -1.7544   -1.8739    0.8189 H   0  0  0  0  0  0  0  0  0  0  0  0
   -1.8428   -1.8450   -0.9056 H   0  0  0  0  0  0  0  0  0  0  0  0
   -2.5786    1.6364    1.3581 H   0  0  0  0  0  0  0  0  0  0  0  0
   -2.5971   -0.0546    2.1015 H   0  0  0  0  0  0  0  0  0  0  0  0
   -4.5799   -0.5787    1.0654 H   0  0  0  0  0  0  0  0  0  0  0  0
   -4.8705    1.2126    1.1571 H   0  0  0  0  0  0  0  0  0  0  0  0
   -2.7114    1.6167   -1.2583 H   0  0  0  0  0  0  0  0  0  0  0  0
   -2.7335    0.0138   -2.0649 H   0  0  0  0  0  0  0  0  0  0  0  0
    2.3715   -1.5730   -1.6763 H   0  0  0  0  0  0  0  0  0  0  0  0
    2.8159    0.1173   -2.1436 H   0  0  0  0  0  0  0  0  0  0  0  0
  1  2  1  0
  2  3  1  0
  3  4  1  0
  4  5  1  0
  5  6  1  0
  6  7  2  0
  6  8  1  0
  8  9  1  1
  8 10  1  0
 10 11  1  0
 11 12  1  0
 12 13  1  0
  4 14  1  0
 14  2  1  0
 13  8  1  0
  1 15  1  0
  1 16  1  0
  1 17  1  0
  3 18  1  0
  3 19  1  0
  4 20  1  0
  5 21  1  0
  9 22  1  0
  9 23  1  0
 10 24  1  0
 10 25  1  0
 11 26  1  0
 11 27  1  0
 13 28  1  0
 13 29  1  0
 14 30  1  0
 14 31  1  0
M  END
$$$$

     RDKit          3D

 31 32  0  0  0  0  0  0  0  0999 V2000
    4.0275    1.1458   -1.0235 C   0  0  0  0  0  0  0  0  0  0  0  0
    2.7741    0.5737   -0.6699 N   0  0  0  0  0  0  0  0  0  0  0  0
    2.6568    0.4401    0.7729 C   0  0  0  0  0  0  0  0  0  0  0  0
    1.7453   -0.7511    0.4679 C   0  0  0  0  0  0  0  0  0  0  0  0
    0.4095   -0.2873    0.0774 N   0  0  0  0  0  0  0  0  0  0  0  0
   -0.7181   -0.9031    0.6823 C   0  0  0  0  0  0  0  0  0  0  0  0
   -0.5357   -1.8190    1.5267 O   0  0  0  0  0  0  0  0  0  0  0  0
   -2.0979   -0.5264    0.3739 C   0  0  1  0  0  0  0  0  0  0  0  0
   -3.0590   -1.2900    1.1112 N   0  0  0  0  0  0  0  0  0  0  0  0
   -2.3762    0.9461    0.6482 C   0  0  0  0  0  0  0  0  0  0  0  0
   -3.5478    1.1744   -0.2818 C   0  0  0  0  0  0  0  0  0  0  0  0
   -3.6129    0.1201   -1.1493 O   0  0  0  0  0  0  0  0  0  0  0  0
   -2.3955   -0.5430   -1.1198 C   0  0  0  0  0  0  0  0  0  0  0  0
    2.7046   -0.8905   -0.7004 C   0  0  0  0  0  0  0  0  0  0  0  0
    3.9185    1.6789   -1.9868 H   0  0  0  0  0  0  0  0  0  0  0  0
    4.8778    0.4372   -1.0207 H   0  0  0  0  0  0  0  0  0  0  0  0
    4.2754    1.9237   -0.2611 H   0  0  0  0  0  0  0  0  0  0  0  0
    3.5724    0.1087    1.2725 H   0  0  0  0  0  0  0  0  0  0  0  0
    2.1345    1.3101    1.2051 H   0  0  0  0  0  0  0  0  0  0  0  0
    1.7566   -1.5457    1.2048 H   0  0  0  0  0  0  0  0  0  0  0  0
    0.2840    0.4723   -0.6237 H   0  0  0  0  0  0  0  0  0  0  0  0
   -3.7936   -1.7393    0.5193 H   0  0  0  0  0  0  0  0  0  0  0  0
   -2.6336   -1.9318    1.8027 H   0  0  0  0  0  0  0  0  0  0  0  0
   -2.6328    1.1210    1.7080 H   0  0  0  0  0  0  0  0  0  0  0  0
   -1.5520    1.5932    0.2877 H   0  0  0  0  0  0  0  0  0  0  0  0
   -4.4596    1.2157    0.3759 H   0  0  0  0  0  0  0  0  0  0  0  0
   -3.4683    2.1317   -0.8304 H   0  0  0  0  0  0  0  0  0  0  0  0
   -2.4852   -1.5631   -1.5216 H   0  0  0  0  0  0  0  0  0  0  0  0
   -1.6600    0.0897   -1.6364 H   0  0  0  0  0  0  0  0  0  0  0  0
    3.6278   -1.3895   -0.3419 H   0  0  0  0  0  0  0  0  0  0  0  0
    2.2632   -1.3024   -1.6251 H   0  0  0  0  0  0  0  0  0  0  0  0
  1  2  1  0
  2  3  1  0
  3  4  1  0
  4  5  1  0
  5  6  1  0
  6  7  2  0
  6  8  1  0
  8  9  1  1
  8 10  1  0
 10 11  1  0
 11 12  1  0
 12 13  1  0
  4 14  1  0
 14  2  1  0
 13  8  1  0
  1 15  1  0
  1 16  1  0
  1 17  1  0
  3 18  1  0
  3 19  1  0
  4 20  1  0
  5 21  1  0
  9 22  1  0
  9 23  1  0
 10 24  1  0
 10 25  1  0
 11 26  1  0
 11 27  1  0
 13 28  1  0
 13 29  1  0
 14 30  1  0
 14 31  1  0
M  END
$$$$

     RDKit          3D

 31 32  0  0  0  0  0  0  0  0999 V2000
    4.4918    0.9778   -1.1692 C   0  0  0  0  0  0  0  0  0  0  0  0
    3.6279    0.3468   -0.2195 N   0  0  0  0  0  0  0  0  0  0  0  0
    2.5074    1.1744    0.2466 C   0  0  0  0  0  0  0  0  0  0  0  0
    1.7080   -0.1054    0.3606 C   0  0  0  0  0  0  0  0  0  0  0  0
    0.3425   -0.0217   -0.0283 N   0  0  0  0  0  0  0  0  0  0  0  0
   -0.6498   -0.7127    0.7007 C   0  0  0  0  0  0  0  0  0  0  0  0
   -0.3005   -1.4031    1.7000 O   0  0  0  0  0  0  0  0  0  0  0  0
   -2.0881   -0.6823    0.3690 C   0  0  1  0  0  0  0  0  0  0  0  0
   -2.8727   -1.4681    1.2675 N   0  0  0  0  0  0  0  0  0  0  0  0
   -2.6365    0.7510    0.4021 C   0  0  0  0  0  0  0  0  0  0  0  0
   -3.8064    0.6100   -0.5286 C   0  0  0  0  0  0  0  0  0  0  0  0
   -3.6081   -0.4812   -1.3253 O   0  0  0  0  0  0  0  0  0  0  0  0
   -2.3962   -1.0502   -1.0425 C   0  0  0  0  0  0  0  0  0  0  0  0
    2.6095   -0.5384   -0.8038 C   0  0  0  0  0  0  0  0  0  0  0  0
    4.6249    0.3412   -2.0786 H   0  0  0  0  0  0  0  0  0  0  0  0
    5.5311    1.0925   -0.7478 H   0  0  0  0  0  0  0  0  0  0  0  0
    4.1629    2.0013   -1.4217 H   0  0  0  0  0  0  0  0  0  0  0  0
    2.7713    1.6474    1.2034 H   0  0  0  0  0  0  0  0  0  0  0  0
    2.1593    1.8104   -0.5663 H   0  0  0  0  0  0  0  0  0  0  0  0
    1.9524   -0.7165    1.2314 H   0  0  0  0  0  0  0  0  0  0  0  0
    0.0652    0.5450   -0.8467 H   0  0  0  0  0  0  0  0  0  0  0  0
   -2.2255   -1.9072    1.9719 H   0  0  0  0  0  0  0  0  0  0  0  0
   -3.4276   -2.1671    0.7527 H   0  0  0  0  0  0  0  0  0  0  0  0
   -2.9022    1.0686    1.4097 H   0  0  0  0  0  0  0  0  0  0  0  0
   -1.9023    1.4274   -0.1033 H   0  0  0  0  0  0  0  0  0  0  0  0
   -4.7010    0.3859    0.1234 H   0  0  0  0  0  0  0  0  0  0  0  0
   -4.0501    1.5460   -1.0746 H   0  0  0  0  0  0  0  0  0  0  0  0
   -2.4283   -2.1703   -1.1194 H   0  0  0  0  0  0  0  0  0  0  0  0
   -1.6532   -0.6287   -1.7724 H   0  0  0  0  0  0  0  0  0  0  0  0
    2.8657   -1.5957   -0.8200 H   0  0  0  0  0  0  0  0  0  0  0  0
    2.2285   -0.0775   -1.7225 H   0  0  0  0  0  0  0  0  0  0  0  0
  1  2  1  0
  2  3  1  0
  3  4  1  0
  4  5  1  0
  5  6  1  0
  6  7  2  0
  6  8  1  0
  8  9  1  1
  8 10  1  0
 10 11  1  0
 11 12  1  0
 12 13  1  0
  4 14  1  0
 14  2  1  0
 13  8  1  0
  1 15  1  0
  1 16  1  0
  1 17  1  0
  3 18  1  0
  3 19  1  0
  4 20  1  0
  5 21  1  0
  9 22  1  0
  9 23  1  0
 10 24  1  0
 10 25  1  0
 11 26  1  0
 11 27  1  0
 13 28  1  0
 13 29  1  0
 14 30  1  0
 14 31  1  0
M  END
$$$$

     RDKit          3D

 31 32  0  0  0  0  0  0  0  0999 V2000
    4.6310   -1.1067   -0.5898 C   0  0  0  0  0  0  0  0  0  0  0  0
    3.7230   -0.1391   -0.0136 N   0  0  0  0  0  0  0  0  0  0  0  0
    2.6316   -0.7504    0.7589 C   0  0  0  0  0  0  0  0  0  0  0  0
    1.7521    0.3561    0.2344 C   0  0  0  0  0  0  0  0  0  0  0  0
    0.3901    0.0026   -0.0464 N   0  0  0  0  0  0  0  0  0  0  0  0
   -0.7075    0.7602    0.4036 C   0  0  0  0  0  0  0  0  0  0  0  0
   -0.4638    1.7892    1.0805 O   0  0  0  0  0  0  0  0  0  0  0  0
   -2.0751    0.3142    0.0625 C   0  0  1  0  0  0  0  0  0  0  0  0
   -2.0476   -0.8869   -0.7159 N   0  0  0  0  0  0  0  0  0  0  0  0
   -2.9338    0.0736    1.2826 C   0  0  0  0  0  0  0  0  0  0  0  0
   -4.3066    0.4178    0.7691 C   0  0  0  0  0  0  0  0  0  0  0  0
   -4.1820    1.2518   -0.2995 O   0  0  0  0  0  0  0  0  0  0  0  0
   -2.8712    1.3548   -0.6752 C   0  0  0  0  0  0  0  0  0  0  0  0
    2.7026    0.3480   -0.9246 C   0  0  0  0  0  0  0  0  0  0  0  0
    4.1518   -1.7717   -1.3235 H   0  0  0  0  0  0  0  0  0  0  0  0
    5.4609   -0.5300   -1.0476 H   0  0  0  0  0  0  0  0  0  0  0  0
    5.0823   -1.7447    0.2001 H   0  0  0  0  0  0  0  0  0  0  0  0
    2.8568   -0.7406    1.8258 H   0  0  0  0  0  0  0  0  0  0  0  0
    2.3821   -1.7408    0.3155 H   0  0  0  0  0  0  0  0  0  0  0  0
    1.8692    1.2720    0.8327 H   0  0  0  0  0  0  0  0  0  0  0  0
    0.2285   -0.8638   -0.6147 H   0  0  0  0  0  0  0  0  0  0  0  0
   -1.5484   -0.7030   -1.6028 H   0  0  0  0  0  0  0  0  0  0  0  0
   -1.6052   -1.6492   -0.1901 H   0  0  0  0  0  0  0  0  0  0  0  0
   -2.6174    0.7054    2.1249 H   0  0  0  0  0  0  0  0  0  0  0  0
   -2.8989   -0.9986    1.5517 H   0  0  0  0  0  0  0  0  0  0  0  0
   -4.8911    0.9024    1.5672 H   0  0  0  0  0  0  0  0  0  0  0  0
   -4.8534   -0.5055    0.4224 H   0  0  0  0  0  0  0  0  0  0  0  0
   -2.4564    2.3816   -0.5607 H   0  0  0  0  0  0  0  0  0  0  0  0
   -2.8084    1.1416   -1.7765 H   0  0  0  0  0  0  0  0  0  0  0  0
    2.4643   -0.3086   -1.7677 H   0  0  0  0  0  0  0  0  0  0  0  0
    2.9407    1.3683   -1.3000 H   0  0  0  0  0  0  0  0  0  0  0  0
  1  2  1  0
  2  3  1  0
  3  4  1  0
  4  5  1  0
  5  6  1  0
  6  7  2  0
  6  8  1  0
  8  9  1  6
  8 10  1  0
 10 11  1  0
 11 12  1  0
 12 13  1  0
  4 14  1  0
 14  2  1  0
 13  8  1  0
  1 15  1  0
  1 16  1  0
  1 17  1  0
  3 18  1  0
  3 19  1  0
  4 20  1  0
  5 21  1  0
  9 22  1  0
  9 23  1  0
 10 24  1  0
 10 25  1  0
 11 26  1  0
 11 27  1  0
 13 28  1  0
 13 29  1  0
 14 30  1  0
 14 31  1  0
M  END
$$$$

     RDKit          3D

 31 32  0  0  0  0  0  0  0  0999 V2000
    4.6428   -0.2544   -0.7946 C   0  0  0  0  0  0  0  0  0  0  0  0
    3.7544   -0.2672    0.3691 N   0  0  0  0  0  0  0  0  0  0  0  0
    2.6997   -1.2576    0.2530 C   0  0  0  0  0  0  0  0  0  0  0  0
    1.7908   -0.2385   -0.3944 C   0  0  0  0  0  0  0  0  0  0  0  0
    0.4978   -0.0968    0.2309 N   0  0  0  0  0  0  0  0  0  0  0  0
   -0.7319   -0.0988   -0.4576 C   0  0  0  0  0  0  0  0  0  0  0  0
   -0.7041   -0.2341   -1.7121 O   0  0  0  0  0  0  0  0  0  0  0  0
   -2.0093    0.0519    0.2604 C   0  0  1  0  0  0  0  0  0  0  0  0
   -1.7437    0.1876    1.6812 N   0  0  0  0  0  0  0  0  0  0  0  0
   -2.8220    1.2252   -0.1842 C   0  0  0  0  0  0  0  0  0  0  0  0
   -4.1889    0.6090   -0.4148 C   0  0  0  0  0  0  0  0  0  0  0  0
   -3.9247   -0.6872   -0.8298 O   0  0  0  0  0  0  0  0  0  0  0  0
   -2.9372   -1.1286    0.0663 C   0  0  0  0  0  0  0  0  0  0  0  0
    2.7499    0.7812    0.1835 C   0  0  0  0  0  0  0  0  0  0  0  0
    5.2928   -1.1345   -0.8216 H   0  0  0  0  0  0  0  0  0  0  0  0
    4.0266   -0.1357   -1.7211 H   0  0  0  0  0  0  0  0  0  0  0  0
    5.2899    0.6450   -0.7375 H   0  0  0  0  0  0  0  0  0  0  0  0
    3.0241   -2.0633   -0.4409 H   0  0  0  0  0  0  0  0  0  0  0  0
    2.3354   -1.6793    1.2074 H   0  0  0  0  0  0  0  0  0  0  0  0
    1.7980   -0.3544   -1.4787 H   0  0  0  0  0  0  0  0  0  0  0  0
    0.4790    0.0150    1.2704 H   0  0  0  0  0  0  0  0  0  0  0  0
   -1.2137    1.0700    1.8404 H   0  0  0  0  0  0  0  0  0  0  0  0
   -2.6655    0.1751    2.1681 H   0  0  0  0  0  0  0  0  0  0  0  0
   -2.4497    1.7029   -1.1065 H   0  0  0  0  0  0  0  0  0  0  0  0
   -2.9682    1.9767    0.6457 H   0  0  0  0  0  0  0  0  0  0  0  0
   -4.8232    0.6597    0.4907 H   0  0  0  0  0  0  0  0  0  0  0  0
   -4.7268    1.1487   -1.2190 H   0  0  0  0  0  0  0  0  0  0  0  0
   -2.4146   -2.0230   -0.3247 H   0  0  0  0  0  0  0  0  0  0  0  0
   -3.4620   -1.3685    1.0141 H   0  0  0  0  0  0  0  0  0  0  0  0
    2.4024    1.2383    1.1335 H   0  0  0  0  0  0  0  0  0  0  0  0
    3.0019    1.5354   -0.5623 H   0  0  0  0  0  0  0  0  0  0  0  0
  1  2  1  0
  2  3  1  0
  3  4  1  0
  4  5  1  0
  5  6  1  0
  6  7  2  0
  6  8  1  0
  8  9  1  1
  8 10  1  0
 10 11  1  0
 11 12  1  0
 12 13  1  0
  4 14  1  0
 14  2  1  0
 13  8  1  0
  1 15  1  0
  1 16  1  0
  1 17  1  0
  3 18  1  0
  3 19  1  0
  4 20  1  0
  5 21  1  0
  9 22  1  0
  9 23  1  0
 10 24  1  0
 10 25  1  0
 11 26  1  0
 11 27  1  0
 13 28  1  0
 13 29  1  0
 14 30  1  0
 14 31  1  0
M  END
$$$$

     RDKit          3D

 31 32  0  0  0  0  0  0  0  0999 V2000
    4.1420    0.8479    0.7024 C   0  0  0  0  0  0  0  0  0  0  0  0
    3.5061   -0.4120    0.4152 N   0  0  0  0  0  0  0  0  0  0  0  0
    2.4257   -0.7258    1.3533 C   0  0  0  0  0  0  0  0  0  0  0  0
    1.5637   -1.0460    0.1593 C   0  0  0  0  0  0  0  0  0  0  0  0
    0.2829   -0.3976    0.1149 N   0  0  0  0  0  0  0  0  0  0  0  0
   -0.8935   -1.1444   -0.2407 C   0  0  0  0  0  0  0  0  0  0  0  0
   -0.8067   -2.3569   -0.5116 O   0  0  0  0  0  0  0  0  0  0  0  0
   -2.1798   -0.4304   -0.2706 C   0  0  1  0  0  0  0  0  0  0  0  0
   -3.2342   -1.3203   -0.6413 N   0  0  0  0  0  0  0  0  0  0  0  0
   -2.4664    0.3302    1.0011 C   0  0  0  0  0  0  0  0  0  0  0  0
   -2.9695    1.6486    0.4745 C   0  0  0  0  0  0  0  0  0  0  0  0
   -3.0934    1.5451   -0.8905 O   0  0  0  0  0  0  0  0  0  0  0  0
   -2.0842    0.6963   -1.3084 C   0  0  0  0  0  0  0  0  0  0  0  0
    2.5878   -0.2802   -0.6881 C   0  0  0  0  0  0  0  0  0  0  0  0
    4.7457    0.7813    1.6370 H   0  0  0  0  0  0  0  0  0  0  0  0
    4.7941    1.1075   -0.1767 H   0  0  0  0  0  0  0  0  0  0  0  0
    3.3735    1.6344    0.8098 H   0  0  0  0  0  0  0  0  0  0  0  0
    2.7460   -1.6049    1.9581 H   0  0  0  0  0  0  0  0  0  0  0  0
    2.0855    0.1428    1.9449 H   0  0  0  0  0  0  0  0  0  0  0  0
    1.5049   -2.1221   -0.1022 H   0  0  0  0  0  0  0  0  0  0  0  0
    0.1958    0.6178    0.3396 H   0  0  0  0  0  0  0  0  0  0  0  0
   -2.9247   -2.3006   -0.4432 H   0  0  0  0  0  0  0  0  0  0  0  0
   -4.0521   -1.1321   -0.0195 H   0  0  0  0  0  0  0  0  0  0  0  0
   -1.4926    0.4482    1.5430 H   0  0  0  0  0  0  0  0  0  0  0  0
   -3.2241   -0.2045    1.5885 H   0  0  0  0  0  0  0  0  0  0  0  0
   -2.2843    2.4895    0.7379 H   0  0  0  0  0  0  0  0  0  0  0  0
   -3.9912    1.8268    0.8964 H   0  0  0  0  0  0  0  0  0  0  0  0
   -2.2522    0.2872   -2.3091 H   0  0  0  0  0  0  0  0  0  0  0  0
   -1.0879    1.1757   -1.2880 H   0  0  0  0  0  0  0  0  0  0  0  0
    2.8245   -0.8672   -1.5954 H   0  0  0  0  0  0  0  0  0  0  0  0
    2.2583    0.7657   -0.9106 H   0  0  0  0  0  0  0  0  0  0  0  0
  1  2  1  0
  2  3  1  0
  3  4  1  0
  4  5  1  0
  5  6  1  0
  6  7  2  0
  6  8  1  0
  8  9  1  6
  8 10  1  0
 10 11  1  0
 11 12  1  0
 12 13  1  0
  4 14  1  0
 14  2  1  0
 13  8  1  0
  1 15  1  0
  1 16  1  0
  1 17  1  0
  3 18  1  0
  3 19  1  0
  4 20  1  0
  5 21  1  0
  9 22  1  0
  9 23  1  0
 10 24  1  0
 10 25  1  0
 11 26  1  0
 11 27  1  0
 13 28  1  0
 13 29  1  0
 14 30  1  0
 14 31  1  0
M  END
$$$$

     RDKit          3D

 31 32  0  0  0  0  0  0  0  0999 V2000
    4.6252   -0.1912    0.1659 C   0  0  0  0  0  0  0  0  0  0  0  0
    3.4272   -0.0904    0.9633 N   0  0  0  0  0  0  0  0  0  0  0  0
    2.5108    0.9665    0.5651 C   0  0  0  0  0  0  0  0  0  0  0  0
    1.6757   -0.0270   -0.1762 C   0  0  0  0  0  0  0  0  0  0  0  0
    0.2677    0.0247   -0.0118 N   0  0  0  0  0  0  0  0  0  0  0  0
   -0.6933   -0.0625   -1.0645 C   0  0  0  0  0  0  0  0  0  0  0  0
   -0.2350   -0.1956   -2.2239 O   0  0  0  0  0  0  0  0  0  0  0  0
   -2.1325   -0.0092   -0.8923 C   0  0  1  0  0  0  0  0  0  0  0  0
   -2.7775   -0.1290   -2.1835 N   0  0  0  0  0  0  0  0  0  0  0  0
   -2.7028   -0.9353    0.1305 C   0  0  0  0  0  0  0  0  0  0  0  0
   -3.6040   -0.0243    0.9383 C   0  0  0  0  0  0  0  0  0  0  0  0
   -2.8044    1.1411    0.9923 O   0  0  0  0  0  0  0  0  0  0  0  0
   -2.5602    1.3562   -0.3437 C   0  0  0  0  0  0  0  0  0  0  0  0
    2.4084   -1.0765    0.6485 C   0  0  0  0  0  0  0  0  0  0  0  0
    4.9533    0.8462   -0.0562 H   0  0  0  0  0  0  0  0  0  0  0  0
    4.4542   -0.7870   -0.7689 H   0  0  0  0  0  0  0  0  0  0  0  0
    5.3800   -0.7564    0.7537 H   0  0  0  0  0  0  0  0  0  0  0  0
    2.0839    1.4246    1.4537 H   0  0  0  0  0  0  0  0  0  0  0  0
    2.9334    1.7145   -0.1349 H   0  0  0  0  0  0  0  0  0  0  0  0
    1.9842   -0.1462   -1.2387 H   0  0  0  0  0  0  0  0  0  0  0  0
   -0.1321    0.1352    0.9465 H   0  0  0  0  0  0  0  0  0  0  0  0
   -2.3539    0.6053   -2.7945 H   0  0  0  0  0  0  0  0  0  0  0  0
   -2.4371   -1.0522   -2.5874 H   0  0  0  0  0  0  0  0  0  0  0  0
   -1.9627   -1.3769    0.8126 H   0  0  0  0  0  0  0  0  0  0  0  0
   -3.3520   -1.6754   -0.3689 H   0  0  0  0  0  0  0  0  0  0  0  0
   -4.5492    0.2005    0.3995 H   0  0  0  0  0  0  0  0  0  0  0  0
   -3.7623   -0.4012    1.9544 H   0  0  0  0  0  0  0  0  0  0  0  0
   -1.7287    2.0605   -0.5305 H   0  0  0  0  0  0  0  0  0  0  0  0
   -3.4890    1.7144   -0.8281 H   0  0  0  0  0  0  0  0  0  0  0  0
    1.8068   -1.3099    1.5505 H   0  0  0  0  0  0  0  0  0  0  0  0
    2.7664   -1.9437    0.0640 H   0  0  0  0  0  0  0  0  0  0  0  0
  1  2  1  0
  2  3  1  0
  3  4  1  0
  4  5  1  0
  5  6  1  0
  6  7  2  0
  6  8  1  0
  8  9  1  6
  8 10  1  0
 10 11  1  0
 11 12  1  0
 12 13  1  0
  4 14  1  0
 14  2  1  0
 13  8  1  0
  1 15  1  0
  1 16  1  0
  1 17  1  0
  3 18  1  0
  3 19  1  0
  4 20  1  0
  5 21  1  0
  9 22  1  0
  9 23  1  0
 10 24  1  0
 10 25  1  0
 11 26  1  0
 11 27  1  0
 13 28  1  0
 13 29  1  0
 14 30  1  0
 14 31  1  0
M  END
$$$$
