
     RDKit          3D

 22 23  0  0  0  0  0  0  0  0999 V2000
   -3.7296   -0.3544   -1.7902 N   0  0  0  0  0  0  0  0  0  0  0  0
   -3.3105    0.2202   -0.5809 C   0  0  0  0  0  0  0  0  0  0  0  0
   -4.4872    1.0097    0.6339 S   0  0  0  0  0  0  0  0  0  0  0  0
   -3.0503    1.4087    1.7659 N   0  0  0  0  0  0  0  0  0  0  0  0
   -2.1959    1.0016    1.2028 N   0  0  0  0  0  0  0  0  0  0  0  0
   -2.1051    0.3809    0.0351 C   0  0  0  0  0  0  0  0  0  0  0  0
   -0.8415   -0.0943   -0.5545 C   0  0  0  0  0  0  0  0  0  0  0  0
   -0.9115   -0.6713   -1.6796 O   0  0  0  0  0  0  0  0  0  0  0  0
    0.4247    0.0641    0.0727 N   0  0  0  0  0  0  0  0  0  0  0  0
    1.5859   -0.4304   -0.5800 C   0  0  2  0  0  0  0  0  0  0  0  0
    2.4973   -1.2461    0.3918 C   0  0  0  0  0  0  0  0  0  0  0  0
    2.9506    0.0251   -0.3001 C   0  0  2  0  0  0  0  0  0  0  0  0
    3.2393    1.1873    0.5024 N   0  0  0  0  0  0  0  0  0  0  0  0
   -3.6621    0.1082   -2.7265 H   0  0  0  0  0  0  0  0  0  0  0  0
   -4.1472   -1.3230   -1.7846 H   0  0  0  0  0  0  0  0  0  0  0  0
    0.4314    0.5452    0.9975 H   0  0  0  0  0  0  0  0  0  0  0  0
    1.4060   -0.9205   -1.5659 H   0  0  0  0  0  0  0  0  0  0  0  0
    2.8205   -2.2176    0.0021 H   0  0  0  0  0  0  0  0  0  0  0  0
    2.3380   -1.1145    1.4685 H   0  0  0  0  0  0  0  0  0  0  0  0
    3.7094   -0.1659   -1.0856 H   0  0  0  0  0  0  0  0  0  0  0  0
    4.2370    1.4097    0.4839 H   0  0  0  0  0  0  0  0  0  0  0  0
    2.8008    1.1774    1.4343 H   0  0  0  0  0  0  0  0  0  0  0  0
  1  2  1  0
  2  3  1  0
  3  4  1  0
  4  5  2  0
  5  6  1  0
  6  7  1  0
  7  8  2  0
  7  9  1  0
  9 10  1  0
 10 11  1  0
 11 12  1  0
 12 13  1  0
  6  2  2  0
 12 10  1  0
  1 14  1  0
  1 15  1  0
  9 16  1  0
 10 17  1  6
 11 18  1  0
 11 19  1  0
 12 20  1  6
 13 21  1  0
 13 22  1  0
M  END
$$$$

     RDKit          3D

 22 23  0  0  0  0  0  0  0  0999 V2000
    3.9008    0.7059    0.8831 N   0  0  0  0  0  0  0  0  0  0  0  0
    3.3631   -0.2469   -0.0481 C   0  0  0  0  0  0  0  0  0  0  0  0
    4.2891   -1.3091   -1.1337 S   0  0  0  0  0  0  0  0  0  0  0  0
    2.6923   -2.0535   -1.8246 N   0  0  0  0  0  0  0  0  0  0  0  0
    1.9268   -1.4893   -1.2395 N   0  0  0  0  0  0  0  0  0  0  0  0
    2.0444   -0.5605   -0.3191 C   0  0  0  0  0  0  0  0  0  0  0  0
    0.9445    0.1078    0.3800 C   0  0  0  0  0  0  0  0  0  0  0  0
    1.1467    1.0002    1.2616 O   0  0  0  0  0  0  0  0  0  0  0  0
   -0.4348   -0.1753    0.1411 N   0  0  0  0  0  0  0  0  0  0  0  0
   -1.5063    0.4864    0.8329 C   0  0  2  0  0  0  0  0  0  0  0  0
   -2.6813   -0.4401    1.1835 C   0  0  0  0  0  0  0  0  0  0  0  0
   -2.8478    0.6324    0.1959 C   0  0  2  0  0  0  0  0  0  0  0  0
   -2.9796    0.2694   -1.2193 N   0  0  0  0  0  0  0  0  0  0  0  0
    4.6942    1.3477    0.6244 H   0  0  0  0  0  0  0  0  0  0  0  0
    3.5097    0.7813    1.8474 H   0  0  0  0  0  0  0  0  0  0  0  0
   -0.6331   -0.9044   -0.5781 H   0  0  0  0  0  0  0  0  0  0  0  0
   -1.2736    1.2584    1.5940 H   0  0  0  0  0  0  0  0  0  0  0  0
   -3.0852   -0.3805    2.2175 H   0  0  0  0  0  0  0  0  0  0  0  0
   -2.6583   -1.4751    0.7804 H   0  0  0  0  0  0  0  0  0  0  0  0
   -3.4845    1.4781    0.4775 H   0  0  0  0  0  0  0  0  0  0  0  0
   -2.9819    1.1203   -1.8224 H   0  0  0  0  0  0  0  0  0  0  0  0
   -3.9453   -0.1533   -1.3184 H   0  0  0  0  0  0  0  0  0  0  0  0
  1  2  1  0
  2  3  1  0
  3  4  1  0
  4  5  2  0
  5  6  1  0
  6  7  1  0
  7  8  2  0
  7  9  1  0
  9 10  1  0
 10 11  1  0
 11 12  1  0
 12 13  1  0
  6  2  2  0
 12 10  1  0
  1 14  1  0
  1 15  1  0
  9 16  1  0
 10 17  1  1
 11 18  1  0
 11 19  1  0
 12 20  1  1
 13 21  1  0
 13 22  1  0
M  END
$$$$

     RDKit          3D

 22 23  0  0  0  0  0  0  0  0999 V2000
    3.7829   -0.8360    1.0182 N   0  0  0  0  0  0  0  0  0  0  0  0
    3.3674    0.1928    0.1147 C   0  0  0  0  0  0  0  0  0  0  0  0
    4.3593    1.3835   -0.7402 S   0  0  0  0  0  0  0  0  0  0  0  0
    2.8188    2.1374   -1.5625 N   0  0  0  0  0  0  0  0  0  0  0  0
    2.0256    1.4953   -1.1350 N   0  0  0  0  0  0  0  0  0  0  0  0
    2.0312    0.4885   -0.3028 C   0  0  0  0  0  0  0  0  0  0  0  0
    0.9094   -0.2755    0.1827 C   0  0  0  0  0  0  0  0  0  0  0  0
    1.0805   -1.2450    1.0055 O   0  0  0  0  0  0  0  0  0  0  0  0
   -0.4418   -0.0100   -0.2117 N   0  0  0  0  0  0  0  0  0  0  0  0
   -1.5095   -0.8102    0.3108 C   0  0  2  0  0  0  0  0  0  0  0  0
   -2.7626   -1.0293   -0.4405 C   0  0  0  0  0  0  0  0  0  0  0  0
   -2.7820   -0.0342    0.6615 C   0  0  2  0  0  0  0  0  0  0  0  0
   -2.8412    1.3689    0.2645 N   0  0  0  0  0  0  0  0  0  0  0  0
    4.4328   -0.5370    1.7772 H   0  0  0  0  0  0  0  0  0  0  0  0
    3.4580   -1.8219    0.9256 H   0  0  0  0  0  0  0  0  0  0  0  0
   -0.6025    0.7789   -0.8839 H   0  0  0  0  0  0  0  0  0  0  0  0
   -1.1980   -1.6096    1.0111 H   0  0  0  0  0  0  0  0  0  0  0  0
   -3.2891   -1.9893   -0.2662 H   0  0  0  0  0  0  0  0  0  0  0  0
   -2.8831   -0.6719   -1.4877 H   0  0  0  0  0  0  0  0  0  0  0  0
   -3.2250   -0.2975    1.6479 H   0  0  0  0  0  0  0  0  0  0  0  0
   -3.2963    1.3998   -0.6842 H   0  0  0  0  0  0  0  0  0  0  0  0
   -3.4350    1.9224    0.9341 H   0  0  0  0  0  0  0  0  0  0  0  0
  1  2  1  0
  2  3  1  0
  3  4  1  0
  4  5  2  0
  5  6  1  0
  6  7  1  0
  7  8  2  0
  7  9  1  0
  9 10  1  0
 10 11  1  0
 11 12  1  0
 12 13  1  0
  6  2  2  0
 12 10  1  0
  1 14  1  0
  1 15  1  0
  9 16  1  0
 10 17  1  1
 11 18  1  0
 11 19  1  0
 12 20  1  1
 13 21  1  0
 13 22  1  0
M  END
$$$$

     RDKit          3D

 22 23  0  0  0  0  0  0  0  0999 V2000
   -3.9337    0.3857   -0.9877 N   0  0  0  0  0  0  0  0  0  0  0  0
   -3.3796   -0.0491    0.1800 C   0  0  0  0  0  0  0  0  0  0  0  0
   -4.2697   -0.5749    1.6812 S   0  0  0  0  0  0  0  0  0  0  0  0
   -2.6703   -0.9329    2.5778 N   0  0  0  0  0  0  0  0  0  0  0  0
   -1.9024   -0.6588    1.7780 N   0  0  0  0  0  0  0  0  0  0  0  0
   -2.0205   -0.2123    0.5530 C   0  0  0  0  0  0  0  0  0  0  0  0
   -0.9075    0.0890   -0.3417 C   0  0  0  0  0  0  0  0  0  0  0  0
   -1.1520    0.5102   -1.4897 O   0  0  0  0  0  0  0  0  0  0  0  0
    0.4544   -0.0689    0.0167 N   0  0  0  0  0  0  0  0  0  0  0  0
    1.5539    0.2295   -0.8692 C   0  0  2  0  0  0  0  0  0  0  0  0
    2.6461   -0.8431   -0.8583 C   0  0  0  0  0  0  0  0  0  0  0  0
    2.8843    0.5989   -0.3902 C   0  0  2  0  0  0  0  0  0  0  0  0
    3.2207    0.7582    0.9932 N   0  0  0  0  0  0  0  0  0  0  0  0
   -3.5518    0.0882   -1.9120 H   0  0  0  0  0  0  0  0  0  0  0  0
   -4.7565    1.0291   -1.0111 H   0  0  0  0  0  0  0  0  0  0  0  0
    0.6323   -0.4284    0.9983 H   0  0  0  0  0  0  0  0  0  0  0  0
    1.2307    0.5996   -1.8723 H   0  0  0  0  0  0  0  0  0  0  0  0
    2.6153   -1.6185   -0.0828 H   0  0  0  0  0  0  0  0  0  0  0  0
    3.0483   -1.1101   -1.8532 H   0  0  0  0  0  0  0  0  0  0  0  0
    3.5073    1.2119   -1.0817 H   0  0  0  0  0  0  0  0  0  0  0  0
    4.2096    0.6249    1.2180 H   0  0  0  0  0  0  0  0  0  0  0  0
    2.5410    0.3718    1.6515 H   0  0  0  0  0  0  0  0  0  0  0  0
  1  2  1  0
  2  3  1  0
  3  4  1  0
  4  5  2  0
  5  6  1  0
  6  7  1  0
  7  8  2  0
  7  9  1  0
  9 10  1  0
 10 11  1  0
 11 12  1  0
 12 13  1  0
  6  2  2  0
 12 10  1  0
  1 14  1  0
  1 15  1  0
  9 16  1  0
 10 17  1  6
 11 18  1  0
 11 19  1  0
 12 20  1  6
 13 21  1  0
 13 22  1  0
M  END
$$$$

     RDKit          3D

 22 23  0  0  0  0  0  0  0  0999 V2000
    3.9519   -0.2880    0.7350 N   0  0  0  0  0  0  0  0  0  0  0  0
    3.1888    0.9381    0.4630 C   0  0  0  0  0  0  0  0  0  0  0  0
    3.8045    2.5388    0.4026 S   0  0  0  0  0  0  0  0  0  0  0  0
    2.0922    3.2690    0.0107 N   0  0  0  0  0  0  0  0  0  0  0  0
    1.4913    2.3219    0.0032 N   0  0  0  0  0  0  0  0  0  0  0  0
    1.8596    1.0715    0.2056 C   0  0  0  0  0  0  0  0  0  0  0  0
    0.9478   -0.0771    0.1630 C   0  0  0  0  0  0  0  0  0  0  0  0
    1.3670   -1.2666    0.3681 O   0  0  0  0  0  0  0  0  0  0  0  0
   -0.4445    0.0240   -0.1024 N   0  0  0  0  0  0  0  0  0  0  0  0
   -1.3051   -1.1480   -0.1331 C   0  0  2  0  0  0  0  0  0  0  0  0
   -2.3356   -1.1646   -1.2466 C   0  0  0  0  0  0  0  0  0  0  0  0
   -2.7544   -0.9974    0.1834 C   0  0  2  0  0  0  0  0  0  0  0  0
   -3.2657    0.2982    0.6021 N   0  0  0  0  0  0  0  0  0  0  0  0
    3.7021   -1.1480    0.2258 H   0  0  0  0  0  0  0  0  0  0  0  0
    4.7238   -0.2502    1.4357 H   0  0  0  0  0  0  0  0  0  0  0  0
   -0.8319    0.9753   -0.2760 H   0  0  0  0  0  0  0  0  0  0  0  0
   -0.7873   -2.1127    0.0657 H   0  0  0  0  0  0  0  0  0  0  0  0
   -2.5392   -2.1396   -1.7225 H   0  0  0  0  0  0  0  0  0  0  0  0
   -2.3816   -0.2728   -1.9152 H   0  0  0  0  0  0  0  0  0  0  0  0
   -3.2044   -1.8717    0.6965 H   0  0  0  0  0  0  0  0  0  0  0  0
   -2.9631    1.0331   -0.0820 H   0  0  0  0  0  0  0  0  0  0  0  0
   -4.3163    0.2668    0.5585 H   0  0  0  0  0  0  0  0  0  0  0  0
  1  2  1  0
  2  3  1  0
  3  4  1  0
  4  5  2  0
  5  6  1  0
  6  7  1  0
  7  8  2  0
  7  9  1  0
  9 10  1  0
 10 11  1  0
 11 12  1  0
 12 13  1  0
  6  2  2  0
 12 10  1  0
  1 14  1  0
  1 15  1  0
  9 16  1  0
 10 17  1  1
 11 18  1  0
 11 19  1  0
 12 20  1  1
 13 21  1  0
 13 22  1  0
M  END
$$$$

     RDKit          3D

 22 23  0  0  0  0  0  0  0  0999 V2000
    3.7025    1.3958    0.6552 N   0  0  0  0  0  0  0  0  0  0  0  0
    3.3642    0.2723   -0.1581 C   0  0  0  0  0  0  0  0  0  0  0  0
    4.4298   -0.7402   -1.1036 S   0  0  0  0  0  0  0  0  0  0  0  0
    3.0121   -1.8147   -1.7119 N   0  0  0  0  0  0  0  0  0  0  0  0
    2.1476   -1.3085   -1.1877 N   0  0  0  0  0  0  0  0  0  0  0  0
    2.1109   -0.2725   -0.3837 C   0  0  0  0  0  0  0  0  0  0  0  0
    0.9047    0.2804    0.2294 C   0  0  0  0  0  0  0  0  0  0  0  0
    0.9799    1.2989    1.0026 O   0  0  0  0  0  0  0  0  0  0  0  0
   -0.3989   -0.2587    0.0161 N   0  0  0  0  0  0  0  0  0  0  0  0
   -1.5347    0.3321    0.6475 C   0  0  2  0  0  0  0  0  0  0  0  0
   -2.4622   -0.7206    1.3167 C   0  0  0  0  0  0  0  0  0  0  0  0
   -2.9135    0.1261    0.1537 C   0  0  2  0  0  0  0  0  0  0  0  0
   -3.1734   -0.4906   -1.1229 N   0  0  0  0  0  0  0  0  0  0  0  0
    3.1627    2.2825    0.5619 H   0  0  0  0  0  0  0  0  0  0  0  0
    4.4812    1.3025    1.3229 H   0  0  0  0  0  0  0  0  0  0  0  0
   -0.4449   -1.0910   -0.6181 H   0  0  0  0  0  0  0  0  0  0  0  0
   -1.3283    1.2055    1.2885 H   0  0  0  0  0  0  0  0  0  0  0  0
   -2.3035   -1.7738    1.0643 H   0  0  0  0  0  0  0  0  0  0  0  0
   -2.8218   -0.4793    2.3344 H   0  0  0  0  0  0  0  0  0  0  0  0
   -3.6474    0.9256    0.4343 H   0  0  0  0  0  0  0  0  0  0  0  0
   -4.1951   -0.7442   -1.1609 H   0  0  0  0  0  0  0  0  0  0  0  0
   -3.0719    0.2726   -1.8534 H   0  0  0  0  0  0  0  0  0  0  0  0
  1  2  1  0
  2  3  1  0
  3  4  1  0
  4  5  2  0
  5  6  1  0
  6  7  1  0
  7  8  2  0
  7  9  1  0
  9 10  1  0
 10 11  1  0
 11 12  1  0
 12 13  1  0
  6  2  2  0
 12 10  1  0
  1 14  1  0
  1 15  1  0
  9 16  1  0
 10 17  1  1
 11 18  1  0
 11 19  1  0
 12 20  1  1
 13 21  1  0
 13 22  1  0
M  END
$$$$

     RDKit          3D

 22 23  0  0  0  0  0  0  0  0999 V2000
    3.4235    1.3237    1.7737 N   0  0  0  0  0  0  0  0  0  0  0  0
    3.3329    0.4761    0.6615 C   0  0  0  0  0  0  0  0  0  0  0  0
    4.6687   -0.2271   -0.2826 S   0  0  0  0  0  0  0  0  0  0  0  0
    3.4769   -1.1154   -1.4321 N   0  0  0  0  0  0  0  0  0  0  0  0
    2.4870   -0.7985   -1.0008 N   0  0  0  0  0  0  0  0  0  0  0  0
    2.2022   -0.0228    0.0229 C   0  0  0  0  0  0  0  0  0  0  0  0
    0.8422    0.2976    0.4647 C   0  0  0  0  0  0  0  0  0  0  0  0
    0.6365    1.0580    1.4676 O   0  0  0  0  0  0  0  0  0  0  0  0
   -0.3367   -0.1895   -0.1581 N   0  0  0  0  0  0  0  0  0  0  0  0
   -1.6705    0.1249    0.2755 C   0  0  2  0  0  0  0  0  0  0  0  0
   -2.6618   -1.0309    0.3366 C   0  0  0  0  0  0  0  0  0  0  0  0
   -2.8241    0.1220   -0.6195 C   0  0  2  0  0  0  0  0  0  0  0  0
   -2.7259   -0.2600   -2.0186 N   0  0  0  0  0  0  0  0  0  0  0  0
    3.1247    0.9815    2.7061 H   0  0  0  0  0  0  0  0  0  0  0  0
    3.7851    2.2823    1.6667 H   0  0  0  0  0  0  0  0  0  0  0  0
   -0.2046   -0.8203   -0.9897 H   0  0  0  0  0  0  0  0  0  0  0  0
   -1.7448    0.8023    1.1671 H   0  0  0  0  0  0  0  0  0  0  0  0
   -3.3564   -1.0915    1.1992 H   0  0  0  0  0  0  0  0  0  0  0  0
   -2.3226   -2.0207   -0.0416 H   0  0  0  0  0  0  0  0  0  0  0  0
   -3.6685    0.8367   -0.4346 H   0  0  0  0  0  0  0  0  0  0  0  0
   -3.2567   -1.1546   -2.1168 H   0  0  0  0  0  0  0  0  0  0  0  0
   -3.2070    0.4261   -2.6471 H   0  0  0  0  0  0  0  0  0  0  0  0
  1  2  1  0
  2  3  1  0
  3  4  1  0
  4  5  2  0
  5  6  1  0
  6  7  1  0
  7  8  2  0
  7  9  1  0
  9 10  1  0
 10 11  1  0
 11 12  1  0
 12 13  1  0
  6  2  2  0
 12 10  1  0
  1 14  1  0
  1 15  1  0
  9 16  1  0
 10 17  1  1
 11 18  1  0
 11 19  1  0
 12 20  1  6
 13 21  1  0
 13 22  1  0
M  END
$$$$

     RDKit          3D

 22 23  0  0  0  0  0  0  0  0999 V2000
    3.2461    0.0820   -2.4367 N   0  0  0  0  0  0  0  0  0  0  0  0
    3.0935   -0.4264   -1.1450 C   0  0  0  0  0  0  0  0  0  0  0  0
    4.4749   -1.3022   -0.2273 S   0  0  0  0  0  0  0  0  0  0  0  0
    3.3263   -1.5415    1.2376 N   0  0  0  0  0  0  0  0  0  0  0  0
    2.3630   -1.0590    0.8929 N   0  0  0  0  0  0  0  0  0  0  0  0
    2.0664   -0.4611   -0.2478 C   0  0  0  0  0  0  0  0  0  0  0  0
    0.7400    0.1356   -0.5669 C   0  0  0  0  0  0  0  0  0  0  0  0
    0.5356    0.6874   -1.6751 O   0  0  0  0  0  0  0  0  0  0  0  0
   -0.3455    0.1175    0.3386 N   0  0  0  0  0  0  0  0  0  0  0  0
   -1.6423    0.6939    0.0429 C   0  0  2  0  0  0  0  0  0  0  0  0
   -2.3469    1.4550    1.1530 C   0  0  0  0  0  0  0  0  0  0  0  0
   -2.8443    0.1317    0.7109 C   0  0  2  0  0  0  0  0  0  0  0  0
   -2.6939   -1.0411    1.5665 N   0  0  0  0  0  0  0  0  0  0  0  0
    2.5733   -0.1404   -3.2090 H   0  0  0  0  0  0  0  0  0  0  0  0
    4.0517    0.7020   -2.6455 H   0  0  0  0  0  0  0  0  0  0  0  0
   -0.1953   -0.3365    1.2648 H   0  0  0  0  0  0  0  0  0  0  0  0
   -1.7809    1.1722   -0.9488 H   0  0  0  0  0  0  0  0  0  0  0  0
   -1.7378    1.5732    2.0659 H   0  0  0  0  0  0  0  0  0  0  0  0
   -2.9744    2.3190    0.9147 H   0  0  0  0  0  0  0  0  0  0  0  0
   -3.7640    0.0968    0.1028 H   0  0  0  0  0  0  0  0  0  0  0  0
   -2.9071   -1.8909    1.0066 H   0  0  0  0  0  0  0  0  0  0  0  0
   -3.2386   -0.9672    2.4405 H   0  0  0  0  0  0  0  0  0  0  0  0
  1  2  1  0
  2  3  1  0
  3  4  1  0
  4  5  2  0
  5  6  1  0
  6  7  1  0
  7  8  2  0
  7  9  1  0
  9 10  1  0
 10 11  1  0
 11 12  1  0
 12 13  1  0
  6  2  2  0
 12 10  1  0
  1 14  1  0
  1 15  1  0
  9 16  1  0
 10 17  1  6
 11 18  1  0
 11 19  1  0
 12 20  1  6
 13 21  1  0
 13 22  1  0
M  END
$$$$
