
     RDKit          3D

 26 26  0  0  0  0  0  0  0  0999 V2000
    3.2308   -0.3786   -0.2266 C   0  0  0  0  0  0  0  0  0  0  0  0
    2.1353    0.6017    0.0245 C   0  0  0  0  0  0  0  0  0  0  0  0
    2.4182    1.8238   -0.0208 O   0  0  0  0  0  0  0  0  0  0  0  0
    0.8259    0.2066    0.3038 N   0  0  0  0  0  0  0  0  0  0  0  0
    0.3859   -1.1759    0.3812 C   0  0  0  0  0  0  0  0  0  0  0  0
   -0.7804   -1.4169   -0.5377 C   0  0  1  0  0  0  0  0  0  0  0  0
   -1.3407   -2.6628   -0.2417 O   0  0  0  0  0  0  0  0  0  0  0  0
   -1.8296   -0.3683   -0.3184 C   0  0  1  0  0  0  0  0  0  0  0  0
   -2.3628   -0.4666    0.9683 O   0  0  0  0  0  0  0  0  0  0  0  0
   -1.2357    0.9898   -0.5621 C   0  0  1  0  0  0  0  0  0  0  0  0
   -2.1684    2.0085   -0.5858 O   0  0  0  0  0  0  0  0  0  0  0  0
   -0.1905    1.2130    0.5381 C   0  0  2  0  0  0  0  0  0  0  0  0
    0.3052    2.4960    0.4695 O   0  0  0  0  0  0  0  0  0  0  0  0
    4.2025    0.0931   -0.0299 H   0  0  0  0  0  0  0  0  0  0  0  0
    3.1602   -1.2444    0.4856 H   0  0  0  0  0  0  0  0  0  0  0  0
    3.2081   -0.7111   -1.2720 H   0  0  0  0  0  0  0  0  0  0  0  0
    1.2112   -1.8841    0.1926 H   0  0  0  0  0  0  0  0  0  0  0  0
    0.0191   -1.3172    1.4312 H   0  0  0  0  0  0  0  0  0  0  0  0
   -0.4621   -1.4377   -1.5856 H   0  0  0  0  0  0  0  0  0  0  0  0
   -1.7571   -3.0517   -1.0481 H   0  0  0  0  0  0  0  0  0  0  0  0
   -2.6706   -0.5093   -1.0282 H   0  0  0  0  0  0  0  0  0  0  0  0
   -3.2916   -0.1112    0.9801 H   0  0  0  0  0  0  0  0  0  0  0  0
   -0.6888    0.9541   -1.5288 H   0  0  0  0  0  0  0  0  0  0  0  0
   -2.2207    2.5000    0.2865 H   0  0  0  0  0  0  0  0  0  0  0  0
   -0.6611    1.0680    1.5404 H   0  0  0  0  0  0  0  0  0  0  0  0
    0.5577    2.7811    1.3838 H   0  0  0  0  0  0  0  0  0  0  0  0
  1  2  1  0
  2  3  2  0
  2  4  1  0
  4  5  1  0
  5  6  1  0
  6  7  1  0
  6  8  1  0
  8  9  1  0
  8 10  1  0
 10 11  1  0
 10 12  1  0
 12 13  1  0
 12  4  1  0
  1 14  1  0
  1 15  1  0
  1 16  1  0
  5 17  1  0
  5 18  1  0
  6 19  1  6
  7 20  1  0
  8 21  1  6
  9 22  1  0
 10 23  1  6
 11 24  1  0
 12 25  1  1
 13 26  1  0
M  END
$$$$

     RDKit          3D

 26 26  0  0  0  0  0  0  0  0999 V2000
    3.1228   -0.3857   -0.4866 C   0  0  0  0  0  0  0  0  0  0  0  0
    1.8390   -1.1182   -0.5982 C   0  0  0  0  0  0  0  0  0  0  0  0
    1.8672   -2.3633   -0.7352 O   0  0  0  0  0  0  0  0  0  0  0  0
    0.6157   -0.4028   -0.5484 N   0  0  0  0  0  0  0  0  0  0  0  0
    0.6306    1.0362   -0.3890 C   0  0  0  0  0  0  0  0  0  0  0  0
   -0.5271    1.5388    0.4400 C   0  0  1  0  0  0  0  0  0  0  0  0
   -1.4860    2.0336   -0.4548 O   0  0  0  0  0  0  0  0  0  0  0  0
   -1.0982    0.3519    1.1789 C   0  0  1  0  0  0  0  0  0  0  0  0
   -2.0462    0.6767    2.1083 O   0  0  0  0  0  0  0  0  0  0  0  0
   -1.7409   -0.5478    0.1381 C   0  0  1  0  0  0  0  0  0  0  0  0
   -2.5699    0.1669   -0.7185 O   0  0  0  0  0  0  0  0  0  0  0  0
   -0.6132   -1.1657   -0.6621 C   0  0  2  0  0  0  0  0  0  0  0  0
   -0.3870   -2.4339   -0.1278 O   0  0  0  0  0  0  0  0  0  0  0  0
    3.2080    0.1392    0.5054 H   0  0  0  0  0  0  0  0  0  0  0  0
    3.9798   -1.0602   -0.5513 H   0  0  0  0  0  0  0  0  0  0  0  0
    3.2030    0.4275   -1.2431 H   0  0  0  0  0  0  0  0  0  0  0  0
    1.5637    1.3104    0.1686 H   0  0  0  0  0  0  0  0  0  0  0  0
    0.6895    1.5001   -1.3783 H   0  0  0  0  0  0  0  0  0  0  0  0
   -0.2449    2.3034    1.1691 H   0  0  0  0  0  0  0  0  0  0  0  0
   -0.9796    2.4343   -1.2066 H   0  0  0  0  0  0  0  0  0  0  0  0
   -0.2159   -0.1958    1.6093 H   0  0  0  0  0  0  0  0  0  0  0  0
   -1.7241    1.2479    2.8438 H   0  0  0  0  0  0  0  0  0  0  0  0
   -2.3235   -1.3385    0.6848 H   0  0  0  0  0  0  0  0  0  0  0  0
   -3.3607   -0.4056   -0.8947 H   0  0  0  0  0  0  0  0  0  0  0  0
   -0.8941   -1.3079   -1.7262 H   0  0  0  0  0  0  0  0  0  0  0  0
   -0.5080   -2.4413    0.8744 H   0  0  0  0  0  0  0  0  0  0  0  0
  1  2  1  0
  2  3  2  0
  2  4  1  0
  4  5  1  0
  5  6  1  0
  6  7  1  0
  6  8  1  0
  8  9  1  0
  8 10  1  0
 10 11  1  0
 10 12  1  0
 12 13  1  0
 12  4  1  0
  1 14  1  0
  1 15  1  0
  1 16  1  0
  5 17  1  0
  5 18  1  0
  6 19  1  1
  7 20  1  0
  8 21  1  1
  9 22  1  0
 10 23  1  1
 11 24  1  0
 12 25  1  6
 13 26  1  0
M  END
$$$$

     RDKit          3D

 26 26  0  0  0  0  0  0  0  0999 V2000
    3.1667   -0.6509    0.2478 C   0  0  0  0  0  0  0  0  0  0  0  0
    2.2987    0.4409   -0.2505 C   0  0  0  0  0  0  0  0  0  0  0  0
    2.8071    1.4042   -0.8863 O   0  0  0  0  0  0  0  0  0  0  0  0
    0.9047    0.3560    0.0134 N   0  0  0  0  0  0  0  0  0  0  0  0
    0.3431   -0.7447    0.7369 C   0  0  0  0  0  0  0  0  0  0  0  0
   -0.9297   -1.2770    0.1745 C   0  0  1  0  0  0  0  0  0  0  0  0
   -1.6218   -1.9142    1.2126 O   0  0  0  0  0  0  0  0  0  0  0  0
   -1.7782   -0.2752   -0.5251 C   0  0  1  0  0  0  0  0  0  0  0  0
   -3.0980   -0.4242   -0.0435 O   0  0  0  0  0  0  0  0  0  0  0  0
   -1.3891    1.1445   -0.3168 C   0  0  1  0  0  0  0  0  0  0  0  0
   -1.8889    1.6395    0.9095 O   0  0  0  0  0  0  0  0  0  0  0  0
    0.0660    1.4305   -0.4793 C   0  0  2  0  0  0  0  0  0  0  0  0
    0.3839    1.6307   -1.8183 O   0  0  0  0  0  0  0  0  0  0  0  0
    4.2390   -0.4381    0.0696 H   0  0  0  0  0  0  0  0  0  0  0  0
    2.9091   -1.5801   -0.3132 H   0  0  0  0  0  0  0  0  0  0  0  0
    3.0007   -0.8342    1.3186 H   0  0  0  0  0  0  0  0  0  0  0  0
    1.1011   -1.5814    0.7074 H   0  0  0  0  0  0  0  0  0  0  0  0
    0.2595   -0.4785    1.8104 H   0  0  0  0  0  0  0  0  0  0  0  0
   -0.6922   -2.0948   -0.5631 H   0  0  0  0  0  0  0  0  0  0  0  0
   -1.5602   -1.3635    2.0242 H   0  0  0  0  0  0  0  0  0  0  0  0
   -1.8364   -0.4692   -1.6269 H   0  0  0  0  0  0  0  0  0  0  0  0
   -3.3478   -1.3673    0.0237 H   0  0  0  0  0  0  0  0  0  0  0  0
   -1.9304    1.7549   -1.0989 H   0  0  0  0  0  0  0  0  0  0  0  0
   -2.1182    2.6175    0.8080 H   0  0  0  0  0  0  0  0  0  0  0  0
    0.3118    2.3538    0.1023 H   0  0  0  0  0  0  0  0  0  0  0  0
    0.3994    0.7211   -2.2368 H   0  0  0  0  0  0  0  0  0  0  0  0
  1  2  1  0
  2  3  2  0
  2  4  1  0
  4  5  1  0
  5  6  1  0
  6  7  1  0
  6  8  1  0
  8  9  1  0
  8 10  1  0
 10 11  1  0
 10 12  1  0
 12 13  1  0
 12  4  1  0
  1 14  1  0
  1 15  1  0
  1 16  1  0
  5 17  1  0
  5 18  1  0
  6 19  1  6
  7 20  1  0
  8 21  1  6
  9 22  1  0
 10 23  1  6
 11 24  1  0
 12 25  1  1
 13 26  1  0
M  END
$$$$

     RDKit          3D

 26 26  0  0  0  0  0  0  0  0999 V2000
    3.1492    0.6287   -0.4594 C   0  0  0  0  0  0  0  0  0  0  0  0
    2.2933   -0.0948    0.5112 C   0  0  0  0  0  0  0  0  0  0  0  0
    2.8408   -0.5851    1.5487 O   0  0  0  0  0  0  0  0  0  0  0  0
    0.9053   -0.2620    0.3345 N   0  0  0  0  0  0  0  0  0  0  0  0
    0.1028   -0.9703    1.2968 C   0  0  0  0  0  0  0  0  0  0  0  0
   -1.1755   -0.1329    1.4519 C   0  0  1  0  0  0  0  0  0  0  0  0
   -0.8540    1.2115    1.5859 O   0  0  0  0  0  0  0  0  0  0  0  0
   -1.9595   -0.4107    0.1798 C   0  0  1  0  0  0  0  0  0  0  0  0
   -3.1538    0.3070    0.1507 O   0  0  0  0  0  0  0  0  0  0  0  0
   -1.1359   -0.2311   -1.0407 C   0  0  1  0  0  0  0  0  0  0  0  0
   -1.8104    0.6892   -1.8757 O   0  0  0  0  0  0  0  0  0  0  0  0
    0.2385    0.2792   -0.8318 C   0  0  2  0  0  0  0  0  0  0  0  0
    1.0201   -0.1388   -1.9358 O   0  0  0  0  0  0  0  0  0  0  0  0
    3.5700   -0.1190   -1.1650 H   0  0  0  0  0  0  0  0  0  0  0  0
    2.5595    1.3749   -1.0399 H   0  0  0  0  0  0  0  0  0  0  0  0
    3.9777    1.1353    0.1130 H   0  0  0  0  0  0  0  0  0  0  0  0
   -0.1691   -1.9540    0.8121 H   0  0  0  0  0  0  0  0  0  0  0  0
    0.5982   -1.1476    2.2479 H   0  0  0  0  0  0  0  0  0  0  0  0
   -1.7501   -0.4504    2.3349 H   0  0  0  0  0  0  0  0  0  0  0  0
   -1.2597    1.7947    0.9244 H   0  0  0  0  0  0  0  0  0  0  0  0
   -2.2695   -1.4948    0.2622 H   0  0  0  0  0  0  0  0  0  0  0  0
   -3.1643    1.0882    0.7305 H   0  0  0  0  0  0  0  0  0  0  0  0
   -1.1040   -1.1793   -1.6424 H   0  0  0  0  0  0  0  0  0  0  0  0
   -2.7559    0.4073   -1.9494 H   0  0  0  0  0  0  0  0  0  0  0  0
    0.3240    1.3944   -0.8362 H   0  0  0  0  0  0  0  0  0  0  0  0
    0.9823   -1.1395   -1.8977 H   0  0  0  0  0  0  0  0  0  0  0  0
  1  2  1  0
  2  3  2  0
  2  4  1  0
  4  5  1  0
  5  6  1  0
  6  7  1  0
  6  8  1  0
  8  9  1  0
  8 10  1  0
 10 11  1  0
 10 12  1  0
 12 13  1  0
 12  4  1  0
  1 14  1  0
  1 15  1  0
  1 16  1  0
  5 17  1  0
  5 18  1  0
  6 19  1  1
  7 20  1  0
  8 21  1  1
  9 22  1  0
 10 23  1  6
 11 24  1  0
 12 25  1  1
 13 26  1  0
M  END
$$$$

     RDKit          3D

 26 26  0  0  0  0  0  0  0  0999 V2000
    3.1873    0.2633   -0.0103 C   0  0  0  0  0  0  0  0  0  0  0  0
    2.1338   -0.7692    0.1143 C   0  0  0  0  0  0  0  0  0  0  0  0
    2.4583   -1.9275    0.4608 O   0  0  0  0  0  0  0  0  0  0  0  0
    0.7848   -0.4321   -0.1589 N   0  0  0  0  0  0  0  0  0  0  0  0
    0.4173    0.9069   -0.5585 C   0  0  0  0  0  0  0  0  0  0  0  0
   -0.7988    1.4258    0.1530 C   0  0  1  0  0  0  0  0  0  0  0  0
   -1.1812    2.6091   -0.4839 O   0  0  0  0  0  0  0  0  0  0  0  0
   -1.8987    0.3826    0.0088 C   0  0  1  0  0  0  0  0  0  0  0  0
   -2.1006    0.1863   -1.3534 O   0  0  0  0  0  0  0  0  0  0  0  0
   -1.4114   -0.8643    0.6999 C   0  0  1  0  0  0  0  0  0  0  0  0
   -2.4036   -1.8370    0.7858 O   0  0  0  0  0  0  0  0  0  0  0  0
   -0.2394   -1.4626   -0.0308 C   0  0  2  0  0  0  0  0  0  0  0  0
    0.2679   -2.5160    0.7605 O   0  0  0  0  0  0  0  0  0  0  0  0
    4.1955   -0.1217    0.1316 H   0  0  0  0  0  0  0  0  0  0  0  0
    3.0876    0.8208   -0.9665 H   0  0  0  0  0  0  0  0  0  0  0  0
    3.0035    1.0089    0.8053 H   0  0  0  0  0  0  0  0  0  0  0  0
    1.2869    1.5728   -0.3710 H   0  0  0  0  0  0  0  0  0  0  0  0
    0.2032    0.9264   -1.6606 H   0  0  0  0  0  0  0  0  0  0  0  0
   -0.5702    1.5891    1.2160 H   0  0  0  0  0  0  0  0  0  0  0  0
   -0.3957    3.1913   -0.6164 H   0  0  0  0  0  0  0  0  0  0  0  0
   -2.7959    0.7363    0.5299 H   0  0  0  0  0  0  0  0  0  0  0  0
   -2.0631    1.1020   -1.7646 H   0  0  0  0  0  0  0  0  0  0  0  0
   -1.0401   -0.5543    1.7075 H   0  0  0  0  0  0  0  0  0  0  0  0
   -3.1744   -1.5396    0.2244 H   0  0  0  0  0  0  0  0  0  0  0  0
   -0.5221   -1.8665   -1.0241 H   0  0  0  0  0  0  0  0  0  0  0  0
   -0.4308   -2.8309    1.4012 H   0  0  0  0  0  0  0  0  0  0  0  0
  1  2  1  0
  2  3  2  0
  2  4  1  0
  4  5  1  0
  5  6  1  0
  6  7  1  0
  6  8  1  0
  8  9  1  0
  8 10  1  0
 10 11  1  0
 10 12  1  0
 12 13  1  0
 12  4  1  0
  1 14  1  0
  1 15  1  0
  1 16  1  0
  5 17  1  0
  5 18  1  0
  6 19  1  1
  7 20  1  0
  8 21  1  1
  9 22  1  0
 10 23  1  1
 11 24  1  0
 12 25  1  6
 13 26  1  0
M  END
$$$$

     RDKit          3D

 26 26  0  0  0  0  0  0  0  0999 V2000
    3.1641   -0.6942   -0.5918 C   0  0  0  0  0  0  0  0  0  0  0  0
    2.3104    0.4637   -0.1522 C   0  0  0  0  0  0  0  0  0  0  0  0
    2.8507    1.5828    0.0116 O   0  0  0  0  0  0  0  0  0  0  0  0
    0.9230    0.3109    0.0767 N   0  0  0  0  0  0  0  0  0  0  0  0
    0.1621    1.4418    0.4921 C   0  0  0  0  0  0  0  0  0  0  0  0
   -1.2764    1.4139    0.1230 C   0  0  1  0  0  0  0  0  0  0  0  0
   -1.4827    1.9640   -1.1642 O   0  0  0  0  0  0  0  0  0  0  0  0
   -1.9479    0.0902    0.2637 C   0  0  1  0  0  0  0  0  0  0  0  0
   -2.5694   -0.3069   -0.9358 O   0  0  0  0  0  0  0  0  0  0  0  0
   -0.9776   -0.9509    0.7460 C   0  0  1  0  0  0  0  0  0  0  0  0
   -1.5602   -2.2009    0.8490 O   0  0  0  0  0  0  0  0  0  0  0  0
    0.2783   -0.9854   -0.1094 C   0  0  2  0  0  0  0  0  0  0  0  0
    1.0655   -2.0237    0.3577 O   0  0  0  0  0  0  0  0  0  0  0  0
    2.6877   -1.2120   -1.4529 H   0  0  0  0  0  0  0  0  0  0  0  0
    3.3353   -1.3731    0.2689 H   0  0  0  0  0  0  0  0  0  0  0  0
    4.1337   -0.3081   -0.9662 H   0  0  0  0  0  0  0  0  0  0  0  0
    0.3094    1.5517    1.6013 H   0  0  0  0  0  0  0  0  0  0  0  0
    0.6167    2.3474   -0.0051 H   0  0  0  0  0  0  0  0  0  0  0  0
   -1.8085    2.1350    0.8116 H   0  0  0  0  0  0  0  0  0  0  0  0
   -1.5466    2.9469   -1.1054 H   0  0  0  0  0  0  0  0  0  0  0  0
   -2.7822    0.1127    1.0189 H   0  0  0  0  0  0  0  0  0  0  0  0
   -3.3985    0.2215   -0.9982 H   0  0  0  0  0  0  0  0  0  0  0  0
   -0.6583   -0.6484    1.7688 H   0  0  0  0  0  0  0  0  0  0  0  0
   -2.4154   -2.1043    1.3042 H   0  0  0  0  0  0  0  0  0  0  0  0
    0.0128   -1.1461   -1.1652 H   0  0  0  0  0  0  0  0  0  0  0  0
    0.5740   -2.6283    0.9757 H   0  0  0  0  0  0  0  0  0  0  0  0
  1  2  1  0
  2  3  2  0
  2  4  1  0
  4  5  1  0
  5  6  1  0
  6  7  1  0
  6  8  1  0
  8  9  1  0
  8 10  1  0
 10 11  1  0
 10 12  1  0
 12 13  1  0
 12  4  1  0
  1 14  1  0
  1 15  1  0
  1 16  1  0
  5 17  1  0
  5 18  1  0
  6 19  1  1
  7 20  1  0
  8 21  1  1
  9 22  1  0
 10 23  1  1
 11 24  1  0
 12 25  1  6
 13 26  1  0
M  END
$$$$

     RDKit          3D

 26 26  0  0  0  0  0  0  0  0999 V2000
    3.2333   -0.2413   -0.3096 C   0  0  0  0  0  0  0  0  0  0  0  0
    2.1601    0.7339    0.0750 C   0  0  0  0  0  0  0  0  0  0  0  0
    2.5137    1.9195    0.3712 O   0  0  0  0  0  0  0  0  0  0  0  0
    0.7985    0.3309    0.1027 N   0  0  0  0  0  0  0  0  0  0  0  0
   -0.1913    1.2846    0.4726 C   0  0  0  0  0  0  0  0  0  0  0  0
   -1.5000    0.7319    0.8818 C   0  0  1  0  0  0  0  0  0  0  0  0
   -2.4981    1.6761    0.5660 O   0  0  0  0  0  0  0  0  0  0  0  0
   -1.8821   -0.5652    0.2739 C   0  0  1  0  0  0  0  0  0  0  0  0
   -3.1776   -0.5498   -0.2586 O   0  0  0  0  0  0  0  0  0  0  0  0
   -0.9543   -0.9830   -0.8280 C   0  0  1  0  0  0  0  0  0  0  0  0
   -1.0593   -0.0575   -1.8564 O   0  0  0  0  0  0  0  0  0  0  0  0
    0.4490   -1.0095   -0.2374 C   0  0  2  0  0  0  0  0  0  0  0  0
    0.3359   -1.7306    0.9697 O   0  0  0  0  0  0  0  0  0  0  0  0
    4.1917    0.2641   -0.4154 H   0  0  0  0  0  0  0  0  0  0  0  0
    2.9936   -0.7053   -1.2897 H   0  0  0  0  0  0  0  0  0  0  0  0
    3.2682   -1.0592    0.4245 H   0  0  0  0  0  0  0  0  0  0  0  0
   -0.3452    2.0042   -0.3586 H   0  0  0  0  0  0  0  0  0  0  0  0
    0.2225    1.8788    1.3330 H   0  0  0  0  0  0  0  0  0  0  0  0
   -1.5522    0.6227    1.9946 H   0  0  0  0  0  0  0  0  0  0  0  0
   -2.5062    2.4045    1.2527 H   0  0  0  0  0  0  0  0  0  0  0  0
   -1.8812   -1.3897    1.0298 H   0  0  0  0  0  0  0  0  0  0  0  0
   -3.2996    0.2204   -0.8931 H   0  0  0  0  0  0  0  0  0  0  0  0
   -1.1648   -1.9857   -1.2007 H   0  0  0  0  0  0  0  0  0  0  0  0
   -0.1825    0.2779   -2.1642 H   0  0  0  0  0  0  0  0  0  0  0  0
    1.1537   -1.5227   -0.8977 H   0  0  0  0  0  0  0  0  0  0  0  0
    0.8743   -2.5501    0.9619 H   0  0  0  0  0  0  0  0  0  0  0  0
  1  2  1  0
  2  3  2  0
  2  4  1  0
  4  5  1  0
  5  6  1  0
  6  7  1  0
  6  8  1  0
  8  9  1  0
  8 10  1  0
 10 11  1  0
 10 12  1  0
 12 13  1  0
 12  4  1  0
  1 14  1  0
  1 15  1  0
  1 16  1  0
  5 17  1  0
  5 18  1  0
  6 19  1  1
  7 20  1  0
  8 21  1  1
  9 22  1  0
 10 23  1  6
 11 24  1  0
 12 25  1  6
 13 26  1  0
M  END
$$$$

     RDKit          3D

 26 26  0  0  0  0  0  0  0  0999 V2000
    3.1660    0.5092    0.2596 C   0  0  0  0  0  0  0  0  0  0  0  0
    2.1443   -0.5695    0.2786 C   0  0  0  0  0  0  0  0  0  0  0  0
    2.4412   -1.7211    0.6804 O   0  0  0  0  0  0  0  0  0  0  0  0
    0.8182   -0.2907   -0.1633 N   0  0  0  0  0  0  0  0  0  0  0  0
    0.4675    1.0367   -0.6287 C   0  0  0  0  0  0  0  0  0  0  0  0
   -0.7979    1.4733    0.0675 C   0  0  1  0  0  0  0  0  0  0  0  0
   -1.1721    2.7536   -0.2362 O   0  0  0  0  0  0  0  0  0  0  0  0
   -1.8662    0.4449   -0.2603 C   0  0  1  0  0  0  0  0  0  0  0  0
   -1.7638    0.1444   -1.6208 O   0  0  0  0  0  0  0  0  0  0  0  0
   -1.4431   -0.8239    0.4806 C   0  0  1  0  0  0  0  0  0  0  0  0
   -2.4438   -1.7612    0.5109 O   0  0  0  0  0  0  0  0  0  0  0  0
   -0.1810   -1.3217   -0.1515 C   0  0  2  0  0  0  0  0  0  0  0  0
    0.3007   -2.4257    0.5559 O   0  0  0  0  0  0  0  0  0  0  0  0
    4.1298    0.0981    0.5663 H   0  0  0  0  0  0  0  0  0  0  0  0
    3.2808    0.8977   -0.7896 H   0  0  0  0  0  0  0  0  0  0  0  0
    2.9002    1.3411    0.9430 H   0  0  0  0  0  0  0  0  0  0  0  0
    1.2625    1.7710   -0.3721 H   0  0  0  0  0  0  0  0  0  0  0  0
    0.2908    0.9862   -1.7042 H   0  0  0  0  0  0  0  0  0  0  0  0
   -0.6086    1.3688    1.1729 H   0  0  0  0  0  0  0  0  0  0  0  0
   -1.9930    2.8275   -0.7768 H   0  0  0  0  0  0  0  0  0  0  0  0
   -2.8722    0.7690   -0.0025 H   0  0  0  0  0  0  0  0  0  0  0  0
   -2.1082   -0.7695   -1.8179 H   0  0  0  0  0  0  0  0  0  0  0  0
   -1.1996   -0.5328    1.5350 H   0  0  0  0  0  0  0  0  0  0  0  0
   -2.5454   -2.2569   -0.3325 H   0  0  0  0  0  0  0  0  0  0  0  0
   -0.3684   -1.6518   -1.2018 H   0  0  0  0  0  0  0  0  0  0  0  0
    0.1615   -2.2970    1.5299 H   0  0  0  0  0  0  0  0  0  0  0  0
  1  2  1  0
  2  3  2  0
  2  4  1  0
  4  5  1  0
  5  6  1  0
  6  7  1  0
  6  8  1  0
  8  9  1  0
  8 10  1  0
 10 11  1  0
 10 12  1  0
 12 13  1  0
 12  4  1  0
  1 14  1  0
  1 15  1  0
  1 16  1  0
  5 17  1  0
  5 18  1  0
  6 19  1  1
  7 20  1  0
  8 21  1  6
  9 22  1  0
 10 23  1  1
 11 24  1  0
 12 25  1  6
 13 26  1  0
M  END
$$$$
