
     RDKit          3D

 22 22  0  0  0  0  0  0  0  0999 V2000
    2.6590   -1.0879   -0.1777 O   0  0  0  0  0  0  0  0  0  0  0  0
    2.0453    0.1689   -0.1184 C   0  0  0  0  0  0  0  0  0  0  0  0
    0.6791    0.0176   -0.7381 C   0  0  1  0  0  0  0  0  0  0  0  0
   -0.0703   -1.0175    0.0835 C   0  0  2  0  0  0  0  0  0  0  0  0
    0.2619   -2.2953   -0.3492 O   0  0  0  0  0  0  0  0  0  0  0  0
   -1.5007   -0.6654   -0.1715 C   0  0  1  0  0  0  0  0  0  0  0  0
   -2.3632   -1.1983    0.7752 O   0  0  0  0  0  0  0  0  0  0  0  0
   -1.4831    0.8523   -0.1176 C   0  0  0  0  0  0  0  0  0  0  0  0
   -0.1353    1.2663   -0.7089 C   0  0  1  0  0  0  0  0  0  0  0  0
    0.4232    2.3050   -0.0044 O   0  0  0  0  0  0  0  0  0  0  0  0
    3.6321   -1.0451   -0.0995 H   0  0  0  0  0  0  0  0  0  0  0  0
    2.6452    0.9594   -0.5957 H   0  0  0  0  0  0  0  0  0  0  0  0
    1.9556    0.4647    0.9611 H   0  0  0  0  0  0  0  0  0  0  0  0
    0.7958   -0.3874   -1.7568 H   0  0  0  0  0  0  0  0  0  0  0  0
    0.1582   -0.8910    1.1657 H   0  0  0  0  0  0  0  0  0  0  0  0
   -0.5156   -2.8923   -0.4136 H   0  0  0  0  0  0  0  0  0  0  0  0
   -1.7565   -0.9663   -1.2117 H   0  0  0  0  0  0  0  0  0  0  0  0
   -3.2243   -0.7029    0.7143 H   0  0  0  0  0  0  0  0  0  0  0  0
   -1.5166    1.1442    0.9388 H   0  0  0  0  0  0  0  0  0  0  0  0
   -2.3252    1.2207   -0.7117 H   0  0  0  0  0  0  0  0  0  0  0  0
   -0.3577    1.5989   -1.7631 H   0  0  0  0  0  0  0  0  0  0  0  0
   -0.0069    3.1515   -0.3338 H   0  0  0  0  0  0  0  0  0  0  0  0
  1  2  1  0
  2  3  1  0
  3  4  1  0
  4  5  1  0
  4  6  1  0
  6  7  1  0
  6  8  1  0
  8  9  1  0
  9 10  1  0
  9  3  1  0
  1 11  1  0
  2 12  1  0
  2 13  1  0
  3 14  1  6
  4 15  1  1
  5 16  1  0
  6 17  1  6
  7 18  1  0
  8 19  1  0
  8 20  1  0
  9 21  1  6
 10 22  1  0
M  END
$$$$

     RDKit          3D

 22 22  0  0  0  0  0  0  0  0999 V2000
   -2.1960   -0.0026   -1.4165 O   0  0  0  0  0  0  0  0  0  0  0  0
   -2.1040   -0.1243   -0.0453 C   0  0  0  0  0  0  0  0  0  0  0  0
   -0.7072   -0.0015    0.4776 C   0  0  1  0  0  0  0  0  0  0  0  0
    0.2224   -1.0589   -0.0874 C   0  0  2  0  0  0  0  0  0  0  0  0
   -0.0720   -2.3281    0.3374 O   0  0  0  0  0  0  0  0  0  0  0  0
    1.5548   -0.5475    0.4745 C   0  0  1  0  0  0  0  0  0  0  0  0
    2.6245   -1.1677   -0.1236 O   0  0  0  0  0  0  0  0  0  0  0  0
    1.4648    0.9215    0.2245 C   0  0  0  0  0  0  0  0  0  0  0  0
   -0.0112    1.2591    0.0610 C   0  0  1  0  0  0  0  0  0  0  0  0
   -0.2048    1.5186   -1.3100 O   0  0  0  0  0  0  0  0  0  0  0  0
   -3.0933    0.4128   -1.6221 H   0  0  0  0  0  0  0  0  0  0  0  0
   -2.7355    0.5974    0.4916 H   0  0  0  0  0  0  0  0  0  0  0  0
   -2.4747   -1.1350    0.2248 H   0  0  0  0  0  0  0  0  0  0  0  0
   -0.7122   -0.0628    1.5641 H   0  0  0  0  0  0  0  0  0  0  0  0
    0.2894   -0.9544   -1.1934 H   0  0  0  0  0  0  0  0  0  0  0  0
   -0.6574   -2.7429   -0.3739 H   0  0  0  0  0  0  0  0  0  0  0  0
    1.4922   -0.7637    1.5791 H   0  0  0  0  0  0  0  0  0  0  0  0
    3.4304   -0.9699    0.3976 H   0  0  0  0  0  0  0  0  0  0  0  0
    2.0479    1.1487   -0.6914 H   0  0  0  0  0  0  0  0  0  0  0  0
    1.8511    1.5038    1.0996 H   0  0  0  0  0  0  0  0  0  0  0  0
   -0.3055    2.1496    0.6304 H   0  0  0  0  0  0  0  0  0  0  0  0
    0.2964    2.3478   -1.5076 H   0  0  0  0  0  0  0  0  0  0  0  0
  1  2  1  0
  2  3  1  0
  3  4  1  0
  4  5  1  0
  4  6  1  0
  6  7  1  0
  6  8  1  0
  8  9  1  0
  9 10  1  0
  9  3  1  0
  1 11  1  0
  2 12  1  0
  2 13  1  0
  3 14  1  1
  4 15  1  6
  5 16  1  0
  6 17  1  1
  7 18  1  0
  8 19  1  0
  8 20  1  0
  9 21  1  1
 10 22  1  0
M  END
$$$$

     RDKit          3D

 22 22  0  0  0  0  0  0  0  0999 V2000
   -2.8913    0.7600   -0.5085 O   0  0  0  0  0  0  0  0  0  0  0  0
   -1.8656   -0.0904   -0.9081 C   0  0  0  0  0  0  0  0  0  0  0  0
   -0.7929   -0.1906    0.1488 C   0  0  1  0  0  0  0  0  0  0  0  0
    0.3288   -1.1146   -0.2771 C   0  0  2  0  0  0  0  0  0  0  0  0
    0.0670   -2.4348   -0.0103 O   0  0  0  0  0  0  0  0  0  0  0  0
    1.4896   -0.5587    0.5301 C   0  0  1  0  0  0  0  0  0  0  0  0
    2.7024   -1.0729    0.1667 O   0  0  0  0  0  0  0  0  0  0  0  0
    1.3503    0.9254    0.2781 C   0  0  0  0  0  0  0  0  0  0  0  0
   -0.1522    1.1232    0.4726 C   0  0  1  0  0  0  0  0  0  0  0  0
   -0.6252    2.1772   -0.2897 O   0  0  0  0  0  0  0  0  0  0  0  0
   -3.1984    0.4396    0.3804 H   0  0  0  0  0  0  0  0  0  0  0  0
   -1.4631    0.2962   -1.8596 H   0  0  0  0  0  0  0  0  0  0  0  0
   -2.3008   -1.1125   -1.0153 H   0  0  0  0  0  0  0  0  0  0  0  0
   -1.2596   -0.6528    1.0465 H   0  0  0  0  0  0  0  0  0  0  0  0
    0.5544   -0.9967   -1.3602 H   0  0  0  0  0  0  0  0  0  0  0  0
    0.4691   -2.7215    0.8448 H   0  0  0  0  0  0  0  0  0  0  0  0
    1.3069   -0.7336    1.5893 H   0  0  0  0  0  0  0  0  0  0  0  0
    2.9267   -0.9593   -0.7817 H   0  0  0  0  0  0  0  0  0  0  0  0
    1.6691    1.2101   -0.7362 H   0  0  0  0  0  0  0  0  0  0  0  0
    1.9375    1.4675    1.0292 H   0  0  0  0  0  0  0  0  0  0  0  0
   -0.3137    1.3546    1.5456 H   0  0  0  0  0  0  0  0  0  0  0  0
    0.0609    2.8845   -0.2853 H   0  0  0  0  0  0  0  0  0  0  0  0
  1  2  1  0
  2  3  1  0
  3  4  1  0
  4  5  1  0
  4  6  1  0
  6  7  1  0
  6  8  1  0
  8  9  1  0
  9 10  1  0
  9  3  1  0
  1 11  1  0
  2 12  1  0
  2 13  1  0
  3 14  1  1
  4 15  1  6
  5 16  1  0
  6 17  1  1
  7 18  1  0
  8 19  1  0
  8 20  1  0
  9 21  1  1
 10 22  1  0
M  END
$$$$

     RDKit          3D

 22 22  0  0  0  0  0  0  0  0999 V2000
   -2.9192    0.3838    0.1107 O   0  0  0  0  0  0  0  0  0  0  0  0
   -1.9293   -0.4503   -0.4048 C   0  0  0  0  0  0  0  0  0  0  0  0
   -0.6483   -0.1174    0.3234 C   0  0  1  0  0  0  0  0  0  0  0  0
    0.5032   -0.9919   -0.1815 C   0  0  2  0  0  0  0  0  0  0  0  0
    0.4245   -2.2604    0.3603 O   0  0  0  0  0  0  0  0  0  0  0  0
    1.6798   -0.2568    0.4682 C   0  0  1  0  0  0  0  0  0  0  0  0
    2.8881   -0.7117    0.0143 O   0  0  0  0  0  0  0  0  0  0  0  0
    1.3826    1.1715    0.0770 C   0  0  0  0  0  0  0  0  0  0  0  0
   -0.1450    1.2615    0.0156 C   0  0  1  0  0  0  0  0  0  0  0  0
   -0.4995    1.6697   -1.2793 O   0  0  0  0  0  0  0  0  0  0  0  0
   -3.7143   -0.1346    0.3225 H   0  0  0  0  0  0  0  0  0  0  0  0
   -1.8115   -0.3551   -1.4838 H   0  0  0  0  0  0  0  0  0  0  0  0
   -2.1854   -1.5035   -0.1112 H   0  0  0  0  0  0  0  0  0  0  0  0
   -0.7416   -0.2460    1.4015 H   0  0  0  0  0  0  0  0  0  0  0  0
    0.5716   -0.9771   -1.2739 H   0  0  0  0  0  0  0  0  0  0  0  0
   -0.3968   -2.7032    0.0557 H   0  0  0  0  0  0  0  0  0  0  0  0
    1.5265   -0.3483    1.5536 H   0  0  0  0  0  0  0  0  0  0  0  0
    3.2491   -1.3450    0.6891 H   0  0  0  0  0  0  0  0  0  0  0  0
    1.7738    1.8380    0.8622 H   0  0  0  0  0  0  0  0  0  0  0  0
    1.8320    1.4331   -0.9032 H   0  0  0  0  0  0  0  0  0  0  0  0
   -0.5331    2.0101    0.7295 H   0  0  0  0  0  0  0  0  0  0  0  0
   -0.3072    2.6338   -1.3458 H   0  0  0  0  0  0  0  0  0  0  0  0
  1  2  1  0
  2  3  1  0
  3  4  1  0
  4  5  1  0
  4  6  1  0
  6  7  1  0
  6  8  1  0
  8  9  1  0
  9 10  1  0
  9  3  1  0
  1 11  1  0
  2 12  1  0
  2 13  1  0
  3 14  1  1
  4 15  1  6
  5 16  1  0
  6 17  1  1
  7 18  1  0
  8 19  1  0
  8 20  1  0
  9 21  1  1
 10 22  1  0
M  END
$$$$

     RDKit          3D

 22 22  0  0  0  0  0  0  0  0999 V2000
    2.7930    0.5467   -0.1150 O   0  0  0  0  0  0  0  0  0  0  0  0
    1.8565   -0.3894    0.3048 C   0  0  0  0  0  0  0  0  0  0  0  0
    0.6061   -0.1944   -0.5606 C   0  0  1  0  0  0  0  0  0  0  0  0
   -0.4739   -1.1787   -0.1706 C   0  0  2  0  0  0  0  0  0  0  0  0
   -0.7402   -2.0936   -1.2035 O   0  0  0  0  0  0  0  0  0  0  0  0
   -1.7308   -0.3865    0.0618 C   0  0  1  0  0  0  0  0  0  0  0  0
   -2.4812   -0.8538    1.1328 O   0  0  0  0  0  0  0  0  0  0  0  0
   -1.2850    1.0131    0.3571 C   0  0  0  0  0  0  0  0  0  0  0  0
    0.0390    1.1748   -0.3788 C   0  0  1  0  0  0  0  0  0  0  0  0
    0.9247    1.9798    0.3577 O   0  0  0  0  0  0  0  0  0  0  0  0
    3.6605    0.1688   -0.3255 H   0  0  0  0  0  0  0  0  0  0  0  0
    1.5944   -0.1301    1.3501 H   0  0  0  0  0  0  0  0  0  0  0  0
    2.2111   -1.4270    0.2559 H   0  0  0  0  0  0  0  0  0  0  0  0
    0.8469   -0.3882   -1.6261 H   0  0  0  0  0  0  0  0  0  0  0  0
   -0.1625   -1.7350    0.7171 H   0  0  0  0  0  0  0  0  0  0  0  0
   -0.4729   -1.6221   -2.0419 H   0  0  0  0  0  0  0  0  0  0  0  0
   -2.4087   -0.3807   -0.8306 H   0  0  0  0  0  0  0  0  0  0  0  0
   -1.9612   -1.3652    1.7909 H   0  0  0  0  0  0  0  0  0  0  0  0
   -2.0034    1.7721   -0.0199 H   0  0  0  0  0  0  0  0  0  0  0  0
   -1.0857    1.1738    1.4504 H   0  0  0  0  0  0  0  0  0  0  0  0
   -0.1309    1.6779   -1.3556 H   0  0  0  0  0  0  0  0  0  0  0  0
    0.4043    2.6376    0.8495 H   0  0  0  0  0  0  0  0  0  0  0  0
  1  2  1  0
  2  3  1  0
  3  4  1  0
  4  5  1  0
  4  6  1  0
  6  7  1  0
  6  8  1  0
  8  9  1  0
  9 10  1  0
  9  3  1  0
  1 11  1  0
  2 12  1  0
  2 13  1  0
  3 14  1  6
  4 15  1  1
  5 16  1  0
  6 17  1  6
  7 18  1  0
  8 19  1  0
  8 20  1  0
  9 21  1  6
 10 22  1  0
M  END
$$$$

     RDKit          3D

 22 22  0  0  0  0  0  0  0  0999 V2000
    2.6728   -0.7904    0.8582 O   0  0  0  0  0  0  0  0  0  0  0  0
    2.0807    0.3832    0.4094 C   0  0  0  0  0  0  0  0  0  0  0  0
    0.8112    0.0078   -0.3069 C   0  0  1  0  0  0  0  0  0  0  0  0
   -0.1590   -0.7255    0.6061 C   0  0  2  0  0  0  0  0  0  0  0  0
    0.2675   -1.9843    0.9392 O   0  0  0  0  0  0  0  0  0  0  0  0
   -1.3740   -0.7478   -0.3307 C   0  0  1  0  0  0  0  0  0  0  0  0
   -2.5033   -1.2069    0.2864 O   0  0  0  0  0  0  0  0  0  0  0  0
   -1.4322    0.6724   -0.7857 C   0  0  0  0  0  0  0  0  0  0  0  0
   -0.0283    1.2479   -0.6382 C   0  0  1  0  0  0  0  0  0  0  0  0
   -0.0089    2.0427    0.5090 O   0  0  0  0  0  0  0  0  0  0  0  0
    2.6488   -1.4584    0.1528 H   0  0  0  0  0  0  0  0  0  0  0  0
    2.7463    0.8566   -0.3353 H   0  0  0  0  0  0  0  0  0  0  0  0
    1.8893    1.0402    1.2565 H   0  0  0  0  0  0  0  0  0  0  0  0
    1.0087   -0.5887   -1.1986 H   0  0  0  0  0  0  0  0  0  0  0  0
   -0.3652   -0.0977    1.4998 H   0  0  0  0  0  0  0  0  0  0  0  0
    0.0814   -2.1965    1.8958 H   0  0  0  0  0  0  0  0  0  0  0  0
   -1.0652   -1.3887   -1.1909 H   0  0  0  0  0  0  0  0  0  0  0  0
   -3.1027   -1.5816   -0.4309 H   0  0  0  0  0  0  0  0  0  0  0  0
   -2.1773    1.2532   -0.1998 H   0  0  0  0  0  0  0  0  0  0  0  0
   -1.6842    0.7035   -1.8672 H   0  0  0  0  0  0  0  0  0  0  0  0
    0.3192    1.7608   -1.5329 H   0  0  0  0  0  0  0  0  0  0  0  0
   -0.6255    2.7982    0.4041 H   0  0  0  0  0  0  0  0  0  0  0  0
  1  2  1  0
  2  3  1  0
  3  4  1  0
  4  5  1  0
  4  6  1  0
  6  7  1  0
  6  8  1  0
  8  9  1  0
  9 10  1  0
  9  3  1  0
  1 11  1  0
  2 12  1  0
  2 13  1  0
  3 14  1  6
  4 15  1  1
  5 16  1  0
  6 17  1  6
  7 18  1  0
  8 19  1  0
  8 20  1  0
  9 21  1  6
 10 22  1  0
M  END
$$$$

     RDKit          3D

 22 22  0  0  0  0  0  0  0  0999 V2000
    1.7225    0.5159    1.4017 O   0  0  0  0  0  0  0  0  0  0  0  0
    1.8995   -0.2673    0.2616 C   0  0  0  0  0  0  0  0  0  0  0  0
    0.6071   -0.4591   -0.4954 C   0  0  1  0  0  0  0  0  0  0  0  0
   -0.4479   -1.1346    0.3280 C   0  0  2  0  0  0  0  0  0  0  0  0
   -0.7055   -2.4232   -0.1845 O   0  0  0  0  0  0  0  0  0  0  0  0
   -1.6674   -0.2604    0.1036 C   0  0  1  0  0  0  0  0  0  0  0  0
   -2.6290   -0.4177    1.0746 O   0  0  0  0  0  0  0  0  0  0  0  0
   -1.0149    1.1165    0.1456 C   0  0  0  0  0  0  0  0  0  0  0  0
    0.0787    0.8989   -0.8865 C   0  0  1  0  0  0  0  0  0  0  0  0
    1.0293    1.8888   -0.8760 O   0  0  0  0  0  0  0  0  0  0  0  0
    2.4822    0.2773    2.0155 H   0  0  0  0  0  0  0  0  0  0  0  0
    2.3365   -1.2545    0.5248 H   0  0  0  0  0  0  0  0  0  0  0  0
    2.6354    0.2673   -0.3722 H   0  0  0  0  0  0  0  0  0  0  0  0
    0.8151   -1.0608   -1.3883 H   0  0  0  0  0  0  0  0  0  0  0  0
   -0.2217   -1.1648    1.4039 H   0  0  0  0  0  0  0  0  0  0  0  0
   -0.8775   -2.2990   -1.1420 H   0  0  0  0  0  0  0  0  0  0  0  0
   -2.0500   -0.3988   -0.9172 H   0  0  0  0  0  0  0  0  0  0  0  0
   -2.7714    0.3668    1.6500 H   0  0  0  0  0  0  0  0  0  0  0  0
   -0.5797    1.2583    1.1486 H   0  0  0  0  0  0  0  0  0  0  0  0
   -1.7158    1.9161   -0.1511 H   0  0  0  0  0  0  0  0  0  0  0  0
   -0.4314    0.7898   -1.8799 H   0  0  0  0  0  0  0  0  0  0  0  0
    1.5056    1.8446   -1.7648 H   0  0  0  0  0  0  0  0  0  0  0  0
  1  2  1  0
  2  3  1  0
  3  4  1  0
  4  5  1  0
  4  6  1  0
  6  7  1  0
  6  8  1  0
  8  9  1  0
  9 10  1  0
  9  3  1  0
  1 11  1  0
  2 12  1  0
  2 13  1  0
  3 14  1  6
  4 15  1  1
  5 16  1  0
  6 17  1  6
  7 18  1  0
  8 19  1  0
  8 20  1  0
  9 21  1  6
 10 22  1  0
M  END
$$$$

     RDKit          3D

 22 22  0  0  0  0  0  0  0  0999 V2000
    2.9506    0.0942    0.5887 O   0  0  0  0  0  0  0  0  0  0  0  0
    2.0009    0.4505   -0.3911 C   0  0  0  0  0  0  0  0  0  0  0  0
    0.6614    0.4429    0.2865 C   0  0  1  0  0  0  0  0  0  0  0  0
   -0.4780    0.8008   -0.6085 C   0  0  2  0  0  0  0  0  0  0  0  0
   -0.5776    2.1671   -0.8445 O   0  0  0  0  0  0  0  0  0  0  0  0
   -1.6786    0.2943    0.1548 C   0  0  1  0  0  0  0  0  0  0  0  0
   -2.6192   -0.3086   -0.6702 O   0  0  0  0  0  0  0  0  0  0  0  0
   -1.1801   -0.7116    1.1528 C   0  0  0  0  0  0  0  0  0  0  0  0
    0.2822   -0.9445    0.7572 C   0  0  1  0  0  0  0  0  0  0  0  0
    0.2819   -1.8836   -0.2414 O   0  0  0  0  0  0  0  0  0  0  0  0
    2.9926   -0.9006    0.6032 H   0  0  0  0  0  0  0  0  0  0  0  0
    2.2453    1.4764   -0.6965 H   0  0  0  0  0  0  0  0  0  0  0  0
    2.0828   -0.2447   -1.2243 H   0  0  0  0  0  0  0  0  0  0  0  0
    0.7035    1.1065    1.1586 H   0  0  0  0  0  0  0  0  0  0  0  0
   -0.4165    0.2698   -1.5790 H   0  0  0  0  0  0  0  0  0  0  0  0
   -0.6901    2.6383    0.0276 H   0  0  0  0  0  0  0  0  0  0  0  0
   -2.1299    1.1735    0.6831 H   0  0  0  0  0  0  0  0  0  0  0  0
   -2.9124   -1.1746   -0.3123 H   0  0  0  0  0  0  0  0  0  0  0  0
   -1.7330   -1.6562    1.1334 H   0  0  0  0  0  0  0  0  0  0  0  0
   -1.1521   -0.3077    2.1868 H   0  0  0  0  0  0  0  0  0  0  0  0
    0.8689   -1.2559    1.6470 H   0  0  0  0  0  0  0  0  0  0  0  0
    0.4974   -1.5261   -1.1452 H   0  0  0  0  0  0  0  0  0  0  0  0
  1  2  1  0
  2  3  1  0
  3  4  1  0
  4  5  1  0
  4  6  1  0
  6  7  1  0
  6  8  1  0
  8  9  1  0
  9 10  1  0
  9  3  1  0
  1 11  1  0
  2 12  1  0
  2 13  1  0
  3 14  1  1
  4 15  1  6
  5 16  1  0
  6 17  1  1
  7 18  1  0
  8 19  1  0
  8 20  1  0
  9 21  1  1
 10 22  1  0
M  END
$$$$
