
     RDKit          3D

 24 24  0  0  0  0  0  0  0  0999 V2000
    3.9842   -0.2927    0.1018 C   0  0  0  0  0  0  0  0  0  0  0  0
    2.6479    0.0014   -0.2600 O   0  0  0  0  0  0  0  0  0  0  0  0
    1.5643   -0.2175    0.5786 C   0  0  0  0  0  0  0  0  0  0  0  0
    1.7828   -0.6969    1.7049 O   0  0  0  0  0  0  0  0  0  0  0  0
    0.2100    0.1239    0.1050 C   0  0  2  0  0  0  0  0  0  0  0  0
    0.0821    1.6231   -0.2065 C   0  0  0  0  0  0  0  0  0  0  0  0
   -1.1406    1.7150   -0.9595 N   0  0  0  0  0  0  0  0  0  0  0  0
   -2.0812    0.6720   -0.8387 C   0  0  0  0  0  0  0  0  0  0  0  0
   -2.9224    0.3981   -1.7647 O   0  0  0  0  0  0  0  0  0  0  0  0
   -2.0880   -0.1329    0.4133 C   0  0  1  0  0  0  0  0  0  0  0  0
   -2.4778   -1.5657    0.1200 C   0  0  0  0  0  0  0  0  0  0  0  0
   -0.8158   -0.1583    1.0845 N   0  0  0  0  0  0  0  0  0  0  0  0
    4.3248   -1.0916   -0.6055 H   0  0  0  0  0  0  0  0  0  0  0  0
    4.5941    0.6032   -0.0298 H   0  0  0  0  0  0  0  0  0  0  0  0
    4.0541   -0.7339    1.1207 H   0  0  0  0  0  0  0  0  0  0  0  0
   -0.0370   -0.4724   -0.7984 H   0  0  0  0  0  0  0  0  0  0  0  0
    0.9649    1.9870   -0.7600 H   0  0  0  0  0  0  0  0  0  0  0  0
   -0.0729    2.1946    0.7346 H   0  0  0  0  0  0  0  0  0  0  0  0
   -1.3330    2.5149   -1.5727 H   0  0  0  0  0  0  0  0  0  0  0  0
   -2.8835    0.2970    1.0552 H   0  0  0  0  0  0  0  0  0  0  0  0
   -2.7404   -2.0318    1.0996 H   0  0  0  0  0  0  0  0  0  0  0  0
   -1.6223   -2.1280   -0.3319 H   0  0  0  0  0  0  0  0  0  0  0  0
   -3.3531   -1.5879   -0.5475 H   0  0  0  0  0  0  0  0  0  0  0  0
   -0.6408   -1.0205    1.6193 H   0  0  0  0  0  0  0  0  0  0  0  0
  1  2  1  0
  2  3  1  0
  3  4  2  0
  3  5  1  0
  5  6  1  0
  6  7  1  0
  7  8  1  0
  8  9  2  0
  8 10  1  0
 10 11  1  0
 10 12  1  0
 12  5  1  0
  1 13  1  0
  1 14  1  0
  1 15  1  0
  5 16  1  6
  6 17  1  0
  6 18  1  0
  7 19  1  0
 10 20  1  1
 11 21  1  0
 11 22  1  0
 11 23  1  0
 12 24  1  0
M  END
$$$$

     RDKit          3D

 24 24  0  0  0  0  0  0  0  0999 V2000
    3.8577    0.2829   -1.1505 C   0  0  0  0  0  0  0  0  0  0  0  0
    2.4747    0.0304   -1.1232 O   0  0  0  0  0  0  0  0  0  0  0  0
    1.7768    0.1830    0.1062 C   0  0  0  0  0  0  0  0  0  0  0  0
    2.4247    0.5268    1.1039 O   0  0  0  0  0  0  0  0  0  0  0  0
    0.3472   -0.0604    0.1682 C   0  0  2  0  0  0  0  0  0  0  0  0
   -0.0542   -1.3637    0.8303 C   0  0  0  0  0  0  0  0  0  0  0  0
   -1.2962   -1.0211    1.4770 N   0  0  0  0  0  0  0  0  0  0  0  0
   -2.1617   -0.2023    0.6744 C   0  0  0  0  0  0  0  0  0  0  0  0
   -3.1467    0.4260    1.1948 O   0  0  0  0  0  0  0  0  0  0  0  0
   -1.8357   -0.1005   -0.7820 C   0  0  1  0  0  0  0  0  0  0  0  0
   -2.7159    0.8661   -1.4967 C   0  0  0  0  0  0  0  0  0  0  0  0
   -0.4378    0.2418   -0.9493 N   0  0  0  0  0  0  0  0  0  0  0  0
    4.2469    0.3326   -0.0981 H   0  0  0  0  0  0  0  0  0  0  0  0
    4.3529   -0.5714   -1.6834 H   0  0  0  0  0  0  0  0  0  0  0  0
    4.1369    1.2091   -1.6640 H   0  0  0  0  0  0  0  0  0  0  0  0
   -0.0211    0.7997    0.9210 H   0  0  0  0  0  0  0  0  0  0  0  0
    0.7181   -1.6745    1.5659 H   0  0  0  0  0  0  0  0  0  0  0  0
   -0.1329   -2.0757   -0.0191 H   0  0  0  0  0  0  0  0  0  0  0  0
   -1.4812   -1.2216    2.4329 H   0  0  0  0  0  0  0  0  0  0  0  0
   -2.0111   -1.1006   -1.1901 H   0  0  0  0  0  0  0  0  0  0  0  0
   -3.4991    1.1879   -0.7968 H   0  0  0  0  0  0  0  0  0  0  0  0
   -2.0958    1.7678   -1.7813 H   0  0  0  0  0  0  0  0  0  0  0  0
   -3.2054    0.4511   -2.3944 H   0  0  0  0  0  0  0  0  0  0  0  0
   -0.2410    1.0865   -1.4640 H   0  0  0  0  0  0  0  0  0  0  0  0
  1  2  1  0
  2  3  1  0
  3  4  2  0
  3  5  1  0
  5  6  1  0
  6  7  1  0
  7  8  1  0
  8  9  2  0
  8 10  1  0
 10 11  1  0
 10 12  1  0
 12  5  1  0
  1 13  1  0
  1 14  1  0
  1 15  1  0
  5 16  1  1
  6 17  1  0
  6 18  1  0
  7 19  1  0
 10 20  1  6
 11 21  1  0
 11 22  1  0
 11 23  1  0
 12 24  1  0
M  END
$$$$

     RDKit          3D

 24 24  0  0  0  0  0  0  0  0999 V2000
    3.8243    0.2511    0.6841 C   0  0  0  0  0  0  0  0  0  0  0  0
    2.4275    0.0090    1.0159 O   0  0  0  0  0  0  0  0  0  0  0  0
    1.7011   -0.6608   -0.0121 C   0  0  0  0  0  0  0  0  0  0  0  0
    2.2625   -1.0344   -1.0388 O   0  0  0  0  0  0  0  0  0  0  0  0
    0.2169   -0.8620    0.2144 C   0  0  2  0  0  0  0  0  0  0  0  0
   -0.2608   -1.2296   -1.2824 C   0  0  0  0  0  0  0  0  0  0  0  0
   -1.6452   -1.4924   -1.0770 N   0  0  0  0  0  0  0  0  0  0  0  0
   -2.3831   -0.5383   -0.2982 C   0  0  0  0  0  0  0  0  0  0  0  0
   -3.4883   -0.6780    0.2033 O   0  0  0  0  0  0  0  0  0  0  0  0
   -1.5860    0.7388   -0.1367 C   0  0  1  0  0  0  0  0  0  0  0  0
   -2.3864    1.7729    0.6245 C   0  0  0  0  0  0  0  0  0  0  0  0
   -0.3529    0.4376    0.4496 N   0  0  0  0  0  0  0  0  0  0  0  0
    4.3714    0.4232    1.5917 H   0  0  0  0  0  0  0  0  0  0  0  0
    3.7685    1.2520    0.1252 H   0  0  0  0  0  0  0  0  0  0  0  0
    4.1671   -0.5048   -0.0062 H   0  0  0  0  0  0  0  0  0  0  0  0
   -0.0539   -1.6470    0.8257 H   0  0  0  0  0  0  0  0  0  0  0  0
   -0.0637   -0.2855   -1.8536 H   0  0  0  0  0  0  0  0  0  0  0  0
    0.3337   -2.0614   -1.5807 H   0  0  0  0  0  0  0  0  0  0  0  0
   -2.1295   -2.3213   -1.5175 H   0  0  0  0  0  0  0  0  0  0  0  0
   -1.4507    1.1267   -1.1902 H   0  0  0  0  0  0  0  0  0  0  0  0
   -1.6393    2.4278    1.1609 H   0  0  0  0  0  0  0  0  0  0  0  0
   -3.0227    1.3098    1.3860 H   0  0  0  0  0  0  0  0  0  0  0  0
   -2.9781    2.4020   -0.0669 H   0  0  0  0  0  0  0  0  0  0  0  0
    0.3675    1.1647    0.3994 H   0  0  0  0  0  0  0  0  0  0  0  0
  1  2  1  0
  2  3  1  0
  3  4  2  0
  3  5  1  0
  5  6  1  0
  6  7  1  0
  7  8  1  0
  8  9  2  0
  8 10  1  0
 10 11  1  0
 10 12  1  0
 12  5  1  0
  1 13  1  0
  1 14  1  0
  1 15  1  0
  5 16  1  1
  6 17  1  0
  6 18  1  0
  7 19  1  0
 10 20  1  6
 11 21  1  0
 11 22  1  0
 11 23  1  0
 12 24  1  0
M  END
$$$$

     RDKit          3D

 24 24  0  0  0  0  0  0  0  0999 V2000
    4.0433    0.1384    0.1974 C   0  0  0  0  0  0  0  0  0  0  0  0
    2.7024   -0.1970    0.5137 O   0  0  0  0  0  0  0  0  0  0  0  0
    1.6746    0.3864   -0.1827 C   0  0  0  0  0  0  0  0  0  0  0  0
    1.9076    1.2177   -1.1011 O   0  0  0  0  0  0  0  0  0  0  0  0
    0.2846    0.0073    0.1803 C   0  0  2  0  0  0  0  0  0  0  0  0
    0.1294   -1.5046    0.0530 C   0  0  0  0  0  0  0  0  0  0  0  0
   -1.2139   -1.8187    0.4739 N   0  0  0  0  0  0  0  0  0  0  0  0
   -2.2166   -0.8382    0.3341 C   0  0  0  0  0  0  0  0  0  0  0  0
   -3.2915   -0.9497    0.9634 O   0  0  0  0  0  0  0  0  0  0  0  0
   -1.9855    0.3170   -0.5595 C   0  0  1  0  0  0  0  0  0  0  0  0
   -2.7831    1.5374   -0.0814 C   0  0  0  0  0  0  0  0  0  0  0  0
   -0.6217    0.7207   -0.6559 N   0  0  0  0  0  0  0  0  0  0  0  0
    4.6650   -0.1785    1.0537 H   0  0  0  0  0  0  0  0  0  0  0  0
    4.3560   -0.4020   -0.7156 H   0  0  0  0  0  0  0  0  0  0  0  0
    4.0716    1.2372    0.0330 H   0  0  0  0  0  0  0  0  0  0  0  0
    0.0755    0.2480    1.2551 H   0  0  0  0  0  0  0  0  0  0  0  0
    0.8966   -1.9435    0.7269 H   0  0  0  0  0  0  0  0  0  0  0  0
    0.2901   -1.7651   -1.0123 H   0  0  0  0  0  0  0  0  0  0  0  0
   -1.3792   -2.7715    0.8675 H   0  0  0  0  0  0  0  0  0  0  0  0
   -2.3774    0.0856   -1.5926 H   0  0  0  0  0  0  0  0  0  0  0  0
   -3.4424    1.2636    0.7739 H   0  0  0  0  0  0  0  0  0  0  0  0
   -2.1059    2.3324    0.3001 H   0  0  0  0  0  0  0  0  0  0  0  0
   -3.3919    1.9711   -0.8873 H   0  0  0  0  0  0  0  0  0  0  0  0
   -0.2877    0.9061   -1.6120 H   0  0  0  0  0  0  0  0  0  0  0  0
  1  2  1  0
  2  3  1  0
  3  4  2  0
  3  5  1  0
  5  6  1  0
  6  7  1  0
  7  8  1  0
  8  9  2  0
  8 10  1  0
 10 11  1  0
 10 12  1  0
 12  5  1  0
  1 13  1  0
  1 14  1  0
  1 15  1  0
  5 16  1  1
  6 17  1  0
  6 18  1  0
  7 19  1  0
 10 20  1  6
 11 21  1  0
 11 22  1  0
 11 23  1  0
 12 24  1  0
M  END
$$$$

     RDKit          3D

 24 24  0  0  0  0  0  0  0  0999 V2000
    3.9516    0.1966    0.6674 C   0  0  0  0  0  0  0  0  0  0  0  0
    2.7138   -0.4190    0.3758 O   0  0  0  0  0  0  0  0  0  0  0  0
    1.5943    0.3939    0.2630 C   0  0  0  0  0  0  0  0  0  0  0  0
    1.7511    1.6320    0.4277 O   0  0  0  0  0  0  0  0  0  0  0  0
    0.2494   -0.0999   -0.0346 C   0  0  2  0  0  0  0  0  0  0  0  0
    0.1870   -0.9385   -1.2906 C   0  0  0  0  0  0  0  0  0  0  0  0
   -1.2003   -1.3201   -1.4757 N   0  0  0  0  0  0  0  0  0  0  0  0
   -2.2131   -0.7636   -0.6597 C   0  0  0  0  0  0  0  0  0  0  0  0
   -3.2529   -1.4267   -0.4458 O   0  0  0  0  0  0  0  0  0  0  0  0
   -2.0512    0.5845   -0.0640 C   0  0  1  0  0  0  0  0  0  0  0  0
   -2.5746    0.5805    1.3507 C   0  0  0  0  0  0  0  0  0  0  0  0
   -0.6802    0.9912   -0.0825 N   0  0  0  0  0  0  0  0  0  0  0  0
    4.3165   -0.0274    1.6837 H   0  0  0  0  0  0  0  0  0  0  0  0
    3.8936    1.3047    0.5902 H   0  0  0  0  0  0  0  0  0  0  0  0
    4.7321   -0.1805   -0.0480 H   0  0  0  0  0  0  0  0  0  0  0  0
   -0.0967   -0.7770    0.7990 H   0  0  0  0  0  0  0  0  0  0  0  0
    0.8047   -1.8565   -1.1091 H   0  0  0  0  0  0  0  0  0  0  0  0
    0.5178   -0.4139   -2.1843 H   0  0  0  0  0  0  0  0  0  0  0  0
   -1.4275   -2.0217   -2.2339 H   0  0  0  0  0  0  0  0  0  0  0  0
   -2.6408    1.2909   -0.6849 H   0  0  0  0  0  0  0  0  0  0  0  0
   -2.1744   -0.2891    1.8871 H   0  0  0  0  0  0  0  0  0  0  0  0
   -3.6832    0.4727    1.2858 H   0  0  0  0  0  0  0  0  0  0  0  0
   -2.2722    1.5066    1.8862 H   0  0  0  0  0  0  0  0  0  0  0  0
   -0.4447    1.5806   -0.9038 H   0  0  0  0  0  0  0  0  0  0  0  0
  1  2  1  0
  2  3  1  0
  3  4  2  0
  3  5  1  0
  5  6  1  0
  6  7  1  0
  7  8  1  0
  8  9  2  0
  8 10  1  0
 10 11  1  0
 10 12  1  0
 12  5  1  0
  1 13  1  0
  1 14  1  0
  1 15  1  0
  5 16  1  1
  6 17  1  0
  6 18  1  0
  7 19  1  0
 10 20  1  6
 11 21  1  0
 11 22  1  0
 11 23  1  0
 12 24  1  0
M  END
$$$$

     RDKit          3D

 24 24  0  0  0  0  0  0  0  0999 V2000
    3.9719   -0.1638   -0.1140 C   0  0  0  0  0  0  0  0  0  0  0  0
    2.6119   -0.2086   -0.4539 O   0  0  0  0  0  0  0  0  0  0  0  0
    1.6102   -0.3202    0.4853 C   0  0  0  0  0  0  0  0  0  0  0  0
    1.9186   -0.3847    1.6902 O   0  0  0  0  0  0  0  0  0  0  0  0
    0.2136   -0.3583    0.0161 C   0  0  2  0  0  0  0  0  0  0  0  0
   -0.0290    0.8332   -0.8484 C   0  0  0  0  0  0  0  0  0  0  0  0
   -1.0199    1.7211   -0.3063 N   0  0  0  0  0  0  0  0  0  0  0  0
   -2.1966    1.1302    0.2492 C   0  0  0  0  0  0  0  0  0  0  0  0
   -3.2870    1.7730    0.2760 O   0  0  0  0  0  0  0  0  0  0  0  0
   -2.0630   -0.2474    0.7785 C   0  0  1  0  0  0  0  0  0  0  0  0
   -2.5578   -1.2957   -0.1815 C   0  0  0  0  0  0  0  0  0  0  0  0
   -0.6858   -0.4766    1.1324 N   0  0  0  0  0  0  0  0  0  0  0  0
    4.3472   -1.2021   -0.0782 H   0  0  0  0  0  0  0  0  0  0  0  0
    4.5283    0.4169   -0.8856 H   0  0  0  0  0  0  0  0  0  0  0  0
    4.0757    0.3837    0.8349 H   0  0  0  0  0  0  0  0  0  0  0  0
    0.1238   -1.2809   -0.6278 H   0  0  0  0  0  0  0  0  0  0  0  0
    0.8892    1.4359   -1.0283 H   0  0  0  0  0  0  0  0  0  0  0  0
   -0.3819    0.5406   -1.8788 H   0  0  0  0  0  0  0  0  0  0  0  0
   -0.9115    2.7701   -0.3041 H   0  0  0  0  0  0  0  0  0  0  0  0
   -2.6733   -0.3112    1.6872 H   0  0  0  0  0  0  0  0  0  0  0  0
   -2.5920   -2.2577    0.3860 H   0  0  0  0  0  0  0  0  0  0  0  0
   -3.5905   -1.0805   -0.4901 H   0  0  0  0  0  0  0  0  0  0  0  0
   -1.9247   -1.3943   -1.0787 H   0  0  0  0  0  0  0  0  0  0  0  0
   -0.3774   -0.0228    1.9942 H   0  0  0  0  0  0  0  0  0  0  0  0
  1  2  1  0
  2  3  1  0
  3  4  2  0
  3  5  1  0
  5  6  1  0
  6  7  1  0
  7  8  1  0
  8  9  2  0
  8 10  1  0
 10 11  1  0
 10 12  1  0
 12  5  1  0
  1 13  1  0
  1 14  1  0
  1 15  1  0
  5 16  1  6
  6 17  1  0
  6 18  1  0
  7 19  1  0
 10 20  1  1
 11 21  1  0
 11 22  1  0
 11 23  1  0
 12 24  1  0
M  END
$$$$

     RDKit          3D

 24 24  0  0  0  0  0  0  0  0999 V2000
    3.6971   -0.4507    0.4073 C   0  0  0  0  0  0  0  0  0  0  0  0
    2.6550   -0.5706   -0.5258 O   0  0  0  0  0  0  0  0  0  0  0  0
    1.3296   -0.4424   -0.0514 C   0  0  0  0  0  0  0  0  0  0  0  0
    1.1797   -0.2273    1.1615 O   0  0  0  0  0  0  0  0  0  0  0  0
    0.2063   -0.5711   -0.9897 C   0  0  2  0  0  0  0  0  0  0  0  0
   -0.0781    0.7603   -1.6653 C   0  0  0  0  0  0  0  0  0  0  0  0
   -0.4977    1.6928   -0.6462 N   0  0  0  0  0  0  0  0  0  0  0  0
   -1.2644    1.2423    0.4436 C   0  0  0  0  0  0  0  0  0  0  0  0
   -1.8224    2.0851    1.1985 O   0  0  0  0  0  0  0  0  0  0  0  0
   -1.4583   -0.2051    0.7575 C   0  0  1  0  0  0  0  0  0  0  0  0
   -2.9721   -0.3950    0.9408 C   0  0  0  0  0  0  0  0  0  0  0  0
   -1.0485   -0.9602   -0.3686 N   0  0  0  0  0  0  0  0  0  0  0  0
    4.4549   -1.2768    0.3314 H   0  0  0  0  0  0  0  0  0  0  0  0
    4.2032    0.5171    0.2733 H   0  0  0  0  0  0  0  0  0  0  0  0
    3.3110   -0.5436    1.4563 H   0  0  0  0  0  0  0  0  0  0  0  0
    0.3965   -1.2870   -1.7846 H   0  0  0  0  0  0  0  0  0  0  0  0
   -0.8941    0.6531   -2.4068 H   0  0  0  0  0  0  0  0  0  0  0  0
    0.8357    1.1605   -2.1211 H   0  0  0  0  0  0  0  0  0  0  0  0
   -0.2126    2.6965   -0.7430 H   0  0  0  0  0  0  0  0  0  0  0  0
   -0.9963   -0.4829    1.7108 H   0  0  0  0  0  0  0  0  0  0  0  0
   -3.2299   -0.2168    2.0093 H   0  0  0  0  0  0  0  0  0  0  0  0
   -3.1779   -1.4451    0.6181 H   0  0  0  0  0  0  0  0  0  0  0  0
   -3.5081    0.2577    0.2351 H   0  0  0  0  0  0  0  0  0  0  0  0
   -1.1086   -1.9910   -0.2409 H   0  0  0  0  0  0  0  0  0  0  0  0
  1  2  1  0
  2  3  1  0
  3  4  2  0
  3  5  1  0
  5  6  1  0
  6  7  1  0
  7  8  1  0
  8  9  2  0
  8 10  1  0
 10 11  1  0
 10 12  1  0
 12  5  1  0
  1 13  1  0
  1 14  1  0
  1 15  1  0
  5 16  1  6
  6 17  1  0
  6 18  1  0
  7 19  1  0
 10 20  1  1
 11 21  1  0
 11 22  1  0
 11 23  1  0
 12 24  1  0
M  END
$$$$

     RDKit          3D

 24 24  0  0  0  0  0  0  0  0999 V2000
    3.1189    1.7677    0.0316 C   0  0  0  0  0  0  0  0  0  0  0  0
    2.0112    1.1901    0.6964 O   0  0  0  0  0  0  0  0  0  0  0  0
    1.4641   -0.0315    0.1515 C   0  0  0  0  0  0  0  0  0  0  0  0
    1.9230   -0.4471   -0.8105 O   0  0  0  0  0  0  0  0  0  0  0  0
    0.3906   -0.6311    0.9529 C   0  0  2  0  0  0  0  0  0  0  0  0
    0.0976   -1.9953    0.3187 C   0  0  0  0  0  0  0  0  0  0  0  0
   -0.8064   -1.8266   -0.7789 N   0  0  0  0  0  0  0  0  0  0  0  0
   -1.2661   -0.5932   -1.2311 C   0  0  0  0  0  0  0  0  0  0  0  0
   -1.6801   -0.4222   -2.4049 O   0  0  0  0  0  0  0  0  0  0  0  0
   -1.2946    0.5362   -0.2687 C   0  0  1  0  0  0  0  0  0  0  0  0
   -2.6993    1.0971   -0.1909 C   0  0  0  0  0  0  0  0  0  0  0  0
   -0.8764    0.0129    0.9898 N   0  0  0  0  0  0  0  0  0  0  0  0
    3.3415    2.7724    0.3400 H   0  0  0  0  0  0  0  0  0  0  0  0
    3.9740    1.0579    0.3044 H   0  0  0  0  0  0  0  0  0  0  0  0
    3.0131    1.6570   -1.0357 H   0  0  0  0  0  0  0  0  0  0  0  0
    0.7682   -0.8154    1.9445 H   0  0  0  0  0  0  0  0  0  0  0  0
   -0.1615   -2.7349    1.0660 H   0  0  0  0  0  0  0  0  0  0  0  0
    1.0686   -2.3461   -0.1500 H   0  0  0  0  0  0  0  0  0  0  0  0
   -1.1374   -2.6841   -1.3212 H   0  0  0  0  0  0  0  0  0  0  0  0
   -0.5890    1.3302   -0.5438 H   0  0  0  0  0  0  0  0  0  0  0  0
   -3.4297    0.3018    0.0257 H   0  0  0  0  0  0  0  0  0  0  0  0
   -2.8982    1.5328   -1.1839 H   0  0  0  0  0  0  0  0  0  0  0  0
   -2.7495    1.9094    0.5606 H   0  0  0  0  0  0  0  0  0  0  0  0
   -1.5825   -0.6379    1.3850 H   0  0  0  0  0  0  0  0  0  0  0  0
  1  2  1  0
  2  3  1  0
  3  4  2  0
  3  5  1  0
  5  6  1  0
  6  7  1  0
  7  8  1  0
  8  9  2  0
  8 10  1  0
 10 11  1  0
 10 12  1  0
 12  5  1  0
  1 13  1  0
  1 14  1  0
  1 15  1  0
  5 16  1  1
  6 17  1  0
  6 18  1  0
  7 19  1  0
 10 20  1  6
 11 21  1  0
 11 22  1  0
 11 23  1  0
 12 24  1  0
M  END
$$$$
