
     RDKit          3D

 26 27  0  0  0  0  0  0  0  0999 V2000
   -0.1491   -1.5869   -0.6920 O   0  0  0  0  0  0  0  0  0  0  0  0
   -0.1474   -0.4403   -0.1828 C   0  0  0  0  0  0  0  0  0  0  0  0
   -1.3396    0.1149    0.1802 O   0  0  0  0  0  0  0  0  0  0  0  0
   -2.5996   -0.4863    0.0360 C   0  0  0  0  0  0  0  0  0  0  0  0
   -3.5744    0.5114   -0.5661 C   0  0  0  0  0  0  0  0  0  0  0  0
   -4.5475    0.0911    0.3346 O   0  0  0  0  0  0  0  0  0  0  0  0
   -3.5371   -0.3339    1.2062 C   0  0  0  0  0  0  0  0  0  0  0  0
    1.1105    0.2953    0.0212 C   0  0  2  0  0  0  0  0  0  0  0  0
    0.8640    1.5357    0.5961 O   0  0  0  0  0  0  0  0  0  0  0  0
    1.8722    0.5301   -1.2666 C   0  0  0  0  0  0  0  0  0  0  0  0
    3.2887    0.1385   -0.8387 C   0  0  0  0  0  0  0  0  0  0  0  0
    2.9836   -1.0449   -0.0187 N   0  0  0  0  0  0  0  0  0  0  0  0
    2.0672   -0.4507    0.9432 C   0  0  0  0  0  0  0  0  0  0  0  0
   -2.6383   -1.4807   -0.4021 H   0  0  0  0  0  0  0  0  0  0  0  0
   -3.7897    0.3011   -1.6284 H   0  0  0  0  0  0  0  0  0  0  0  0
   -3.2800    1.5694   -0.3644 H   0  0  0  0  0  0  0  0  0  0  0  0
   -3.2775    0.4145    1.9537 H   0  0  0  0  0  0  0  0  0  0  0  0
   -3.8554   -1.3191    1.6547 H   0  0  0  0  0  0  0  0  0  0  0  0
    1.4934    1.7321    1.3504 H   0  0  0  0  0  0  0  0  0  0  0  0
    1.8235    1.5826   -1.6036 H   0  0  0  0  0  0  0  0  0  0  0  0
    1.5560   -0.1908   -2.0416 H   0  0  0  0  0  0  0  0  0  0  0  0
    3.6818    0.9355   -0.1828 H   0  0  0  0  0  0  0  0  0  0  0  0
    3.9281   -0.1045   -1.6917 H   0  0  0  0  0  0  0  0  0  0  0  0
    3.8453   -1.4221    0.4267 H   0  0  0  0  0  0  0  0  0  0  0  0
    1.5619   -1.1883    1.5723 H   0  0  0  0  0  0  0  0  0  0  0  0
    2.6592    0.2963    1.5159 H   0  0  0  0  0  0  0  0  0  0  0  0
  1  2  2  0
  2  3  1  0
  3  4  1  0
  4  5  1  0
  5  6  1  0
  6  7  1  0
  2  8  1  0
  8  9  1  1
  8 10  1  0
 10 11  1  0
 11 12  1  0
 12 13  1  0
  7  4  1  0
 13  8  1  0
  4 14  1  0
  5 15  1  0
  5 16  1  0
  7 17  1  0
  7 18  1  0
  9 19  1  0
 10 20  1  0
 10 21  1  0
 11 22  1  0
 11 23  1  0
 12 24  1  0
 13 25  1  0
 13 26  1  0
M  END
$$$$

     RDKit          3D

 26 27  0  0  0  0  0  0  0  0999 V2000
    0.1091   -1.3526   -1.0848 O   0  0  0  0  0  0  0  0  0  0  0  0
    0.1042   -0.4032   -0.2769 C   0  0  0  0  0  0  0  0  0  0  0  0
    1.2943    0.1135    0.1866 O   0  0  0  0  0  0  0  0  0  0  0  0
    2.5565   -0.3593   -0.1907 C   0  0  0  0  0  0  0  0  0  0  0  0
    3.5014   -0.4342    0.9627 C   0  0  0  0  0  0  0  0  0  0  0  0
    4.0166    0.8092    0.5924 O   0  0  0  0  0  0  0  0  0  0  0  0
    3.4474    0.7657   -0.6741 C   0  0  0  0  0  0  0  0  0  0  0  0
   -1.1667    0.1845    0.1981 C   0  0  2  0  0  0  0  0  0  0  0  0
   -0.9300    1.2257    1.0893 O   0  0  0  0  0  0  0  0  0  0  0  0
   -2.0646   -0.8718    0.7884 C   0  0  0  0  0  0  0  0  0  0  0  0
   -3.3518   -0.7323    0.0142 C   0  0  0  0  0  0  0  0  0  0  0  0
   -3.3300    0.6330   -0.4840 N   0  0  0  0  0  0  0  0  0  0  0  0
   -1.9689    0.7452   -0.9608 C   0  0  0  0  0  0  0  0  0  0  0  0
    2.5600   -1.1952   -0.9022 H   0  0  0  0  0  0  0  0  0  0  0  0
    3.0581   -0.3742    1.9766 H   0  0  0  0  0  0  0  0  0  0  0  0
    4.2344   -1.2599    0.8507 H   0  0  0  0  0  0  0  0  0  0  0  0
    2.9072    1.6762   -0.9804 H   0  0  0  0  0  0  0  0  0  0  0  0
    4.1594    0.4760   -1.4622 H   0  0  0  0  0  0  0  0  0  0  0  0
   -0.5918    2.0171    0.6104 H   0  0  0  0  0  0  0  0  0  0  0  0
   -1.6250   -1.8929    0.6663 H   0  0  0  0  0  0  0  0  0  0  0  0
   -2.2449   -0.6400    1.8770 H   0  0  0  0  0  0  0  0  0  0  0  0
   -4.2178   -0.8980    0.6838 H   0  0  0  0  0  0  0  0  0  0  0  0
   -3.3810   -1.4567   -0.8250 H   0  0  0  0  0  0  0  0  0  0  0  0
   -3.4416    1.2565    0.3268 H   0  0  0  0  0  0  0  0  0  0  0  0
   -1.8684    0.1451   -1.8761 H   0  0  0  0  0  0  0  0  0  0  0  0
   -1.7660    1.8227   -1.1061 H   0  0  0  0  0  0  0  0  0  0  0  0
  1  2  2  0
  2  3  1  0
  3  4  1  0
  4  5  1  0
  5  6  1  0
  6  7  1  0
  2  8  1  0
  8  9  1  1
  8 10  1  0
 10 11  1  0
 11 12  1  0
 12 13  1  0
  7  4  1  0
 13  8  1  0
  4 14  1  0
  5 15  1  0
  5 16  1  0
  7 17  1  0
  7 18  1  0
  9 19  1  0
 10 20  1  0
 10 21  1  0
 11 22  1  0
 11 23  1  0
 12 24  1  0
 13 25  1  0
 13 26  1  0
M  END
$$$$

     RDKit          3D

 26 27  0  0  0  0  0  0  0  0999 V2000
   -0.0653   -1.6060    0.6730 O   0  0  0  0  0  0  0  0  0  0  0  0
   -0.0845   -0.3766    0.3398 C   0  0  0  0  0  0  0  0  0  0  0  0
   -1.3191    0.2210    0.2599 O   0  0  0  0  0  0  0  0  0  0  0  0
   -2.5249   -0.4327    0.5185 C   0  0  0  0  0  0  0  0  0  0  0  0
   -3.4874    0.3496    1.4225 C   0  0  0  0  0  0  0  0  0  0  0  0
   -4.5244   -0.2731    0.6894 O   0  0  0  0  0  0  0  0  0  0  0  0
   -3.6572   -0.1788   -0.4260 C   0  0  0  0  0  0  0  0  0  0  0  0
    1.2036    0.2661    0.0788 C   0  0  2  0  0  0  0  0  0  0  0  0
    1.0730    1.5950   -0.2742 O   0  0  0  0  0  0  0  0  0  0  0  0
    1.9667   -0.5378   -0.9566 C   0  0  0  0  0  0  0  0  0  0  0  0
    3.3950   -0.3622   -0.5521 C   0  0  0  0  0  0  0  0  0  0  0  0
    3.4093    0.5265    0.6002 N   0  0  0  0  0  0  0  0  0  0  0  0
    2.1534    0.1974    1.2543 C   0  0  0  0  0  0  0  0  0  0  0  0
   -2.4751   -1.4846    0.8012 H   0  0  0  0  0  0  0  0  0  0  0  0
   -3.4218    0.0462    2.4651 H   0  0  0  0  0  0  0  0  0  0  0  0
   -3.4425    1.4180    1.1812 H   0  0  0  0  0  0  0  0  0  0  0  0
   -3.7362    0.8752   -0.8031 H   0  0  0  0  0  0  0  0  0  0  0  0
   -3.8207   -0.9372   -1.1953 H   0  0  0  0  0  0  0  0  0  0  0  0
    0.6482    2.0610    0.4768 H   0  0  0  0  0  0  0  0  0  0  0  0
    1.6318   -1.6047   -0.9050 H   0  0  0  0  0  0  0  0  0  0  0  0
    1.7317   -0.1159   -1.9539 H   0  0  0  0  0  0  0  0  0  0  0  0
    3.8764   -1.3099   -0.2331 H   0  0  0  0  0  0  0  0  0  0  0  0
    3.9632    0.0346   -1.4010 H   0  0  0  0  0  0  0  0  0  0  0  0
    3.3023    1.4970    0.2226 H   0  0  0  0  0  0  0  0  0  0  0  0
    2.2656   -0.8269    1.6538 H   0  0  0  0  0  0  0  0  0  0  0  0
    1.9389    0.9586    2.0187 H   0  0  0  0  0  0  0  0  0  0  0  0
  1  2  2  0
  2  3  1  0
  3  4  1  0
  4  5  1  0
  5  6  1  0
  6  7  1  0
  2  8  1  0
  8  9  1  6
  8 10  1  0
 10 11  1  0
 11 12  1  0
 12 13  1  0
  7  4  1  0
 13  8  1  0
  4 14  1  0
  5 15  1  0
  5 16  1  0
  7 17  1  0
  7 18  1  0
  9 19  1  0
 10 20  1  0
 10 21  1  0
 11 22  1  0
 11 23  1  0
 12 24  1  0
 13 25  1  0
 13 26  1  0
M  END
$$$$

     RDKit          3D

 26 27  0  0  0  0  0  0  0  0999 V2000
    0.3190   -1.3218    1.1428 O   0  0  0  0  0  0  0  0  0  0  0  0
    0.1420   -0.3494    0.4010 C   0  0  0  0  0  0  0  0  0  0  0  0
    1.2733    0.3822    0.0840 O   0  0  0  0  0  0  0  0  0  0  0  0
    2.5024    0.0500    0.5603 C   0  0  0  0  0  0  0  0  0  0  0  0
    3.6472   -0.0793   -0.4163 C   0  0  0  0  0  0  0  0  0  0  0  0
    4.4846    0.2376    0.6710 O   0  0  0  0  0  0  0  0  0  0  0  0
    3.4261    1.0723    1.1057 C   0  0  0  0  0  0  0  0  0  0  0  0
   -1.2096   -0.0192   -0.0971 C   0  0  2  0  0  0  0  0  0  0  0  0
   -1.2201    1.0943   -0.9099 O   0  0  0  0  0  0  0  0  0  0  0  0
   -2.1910    0.2086    1.0470 C   0  0  0  0  0  0  0  0  0  0  0  0
   -3.4994    0.1122    0.2544 C   0  0  0  0  0  0  0  0  0  0  0  0
   -3.2603   -0.8284   -0.7971 N   0  0  0  0  0  0  0  0  0  0  0  0
   -1.8668   -1.1504   -0.8222 C   0  0  0  0  0  0  0  0  0  0  0  0
    2.4852   -0.8531    1.2147 H   0  0  0  0  0  0  0  0  0  0  0  0
    3.7980   -1.0699   -0.8487 H   0  0  0  0  0  0  0  0  0  0  0  0
    3.7041    0.7736   -1.1437 H   0  0  0  0  0  0  0  0  0  0  0  0
    3.3814    1.2016    2.1986 H   0  0  0  0  0  0  0  0  0  0  0  0
    3.5213    2.0247    0.5965 H   0  0  0  0  0  0  0  0  0  0  0  0
   -0.4186    1.0236   -1.5178 H   0  0  0  0  0  0  0  0  0  0  0  0
   -2.1423   -0.6494    1.7385 H   0  0  0  0  0  0  0  0  0  0  0  0
   -2.0639    1.1862    1.5101 H   0  0  0  0  0  0  0  0  0  0  0  0
   -4.3307   -0.2173    0.8753 H   0  0  0  0  0  0  0  0  0  0  0  0
   -3.6392    1.1097   -0.2112 H   0  0  0  0  0  0  0  0  0  0  0  0
   -3.6115   -0.5588   -1.7227 H   0  0  0  0  0  0  0  0  0  0  0  0
   -1.7201   -2.1281   -0.2978 H   0  0  0  0  0  0  0  0  0  0  0  0
   -1.5111   -1.2517   -1.8746 H   0  0  0  0  0  0  0  0  0  0  0  0
  1  2  2  0
  2  3  1  0
  3  4  1  0
  4  5  1  0
  5  6  1  0
  6  7  1  0
  2  8  1  0
  8  9  1  6
  8 10  1  0
 10 11  1  0
 11 12  1  0
 12 13  1  0
  7  4  1  0
 13  8  1  0
  4 14  1  0
  5 15  1  0
  5 16  1  0
  7 17  1  0
  7 18  1  0
  9 19  1  0
 10 20  1  0
 10 21  1  0
 11 22  1  0
 11 23  1  0
 12 24  1  0
 13 25  1  0
 13 26  1  0
M  END
$$$$

     RDKit          3D

 26 27  0  0  0  0  0  0  0  0999 V2000
   -0.6611   -1.7583    1.2942 O   0  0  0  0  0  0  0  0  0  0  0  0
   -0.1618   -0.7843    0.6709 C   0  0  0  0  0  0  0  0  0  0  0  0
   -1.0743    0.0782    0.0827 O   0  0  0  0  0  0  0  0  0  0  0  0
   -2.4632   -0.0723    0.1438 C   0  0  0  0  0  0  0  0  0  0  0  0
   -3.2440    1.1597    0.4710 C   0  0  0  0  0  0  0  0  0  0  0  0
   -4.0519    1.0390   -0.6493 O   0  0  0  0  0  0  0  0  0  0  0  0
   -3.1979    0.0700   -1.1663 C   0  0  0  0  0  0  0  0  0  0  0  0
    1.2830   -0.6463    0.6195 C   0  0  2  0  0  0  0  0  0  0  0  0
    1.8795   -1.6894    1.3176 O   0  0  0  0  0  0  0  0  0  0  0  0
    1.8135    0.6697    1.0965 C   0  0  0  0  0  0  0  0  0  0  0  0
    2.8150    1.0458    0.0304 C   0  0  0  0  0  0  0  0  0  0  0  0
    3.0751   -0.1614   -0.7318 N   0  0  0  0  0  0  0  0  0  0  0  0
    1.7518   -0.7667   -0.8349 C   0  0  0  0  0  0  0  0  0  0  0  0
   -2.8348   -0.9443    0.7038 H   0  0  0  0  0  0  0  0  0  0  0  0
   -2.6479    2.0845    0.4410 H   0  0  0  0  0  0  0  0  0  0  0  0
   -3.8854    1.0908    1.3853 H   0  0  0  0  0  0  0  0  0  0  0  0
   -2.6007    0.5215   -1.9906 H   0  0  0  0  0  0  0  0  0  0  0  0
   -3.7729   -0.8374   -1.4444 H   0  0  0  0  0  0  0  0  0  0  0  0
    1.8685   -2.4785    0.7203 H   0  0  0  0  0  0  0  0  0  0  0  0
    1.0305    1.4391    1.2298 H   0  0  0  0  0  0  0  0  0  0  0  0
    2.3792    0.5256    2.0400 H   0  0  0  0  0  0  0  0  0  0  0  0
    3.7782    1.3979    0.4560 H   0  0  0  0  0  0  0  0  0  0  0  0
    2.3649    1.8024   -0.6490 H   0  0  0  0  0  0  0  0  0  0  0  0
    3.6663   -0.8228   -0.1857 H   0  0  0  0  0  0  0  0  0  0  0  0
    1.1031   -0.1395   -1.4673 H   0  0  0  0  0  0  0  0  0  0  0  0
    1.7874   -1.8230   -1.1156 H   0  0  0  0  0  0  0  0  0  0  0  0
  1  2  2  0
  2  3  1  0
  3  4  1  0
  4  5  1  0
  5  6  1  0
  6  7  1  0
  2  8  1  0
  8  9  1  1
  8 10  1  0
 10 11  1  0
 11 12  1  0
 12 13  1  0
  7  4  1  0
 13  8  1  0
  4 14  1  0
  5 15  1  0
  5 16  1  0
  7 17  1  0
  7 18  1  0
  9 19  1  0
 10 20  1  0
 10 21  1  0
 11 22  1  0
 11 23  1  0
 12 24  1  0
 13 25  1  0
 13 26  1  0
M  END
$$$$

     RDKit          3D

 26 27  0  0  0  0  0  0  0  0999 V2000
    0.2161   -1.3126   -0.9693 O   0  0  0  0  0  0  0  0  0  0  0  0
    0.1499   -0.2907   -0.2301 C   0  0  0  0  0  0  0  0  0  0  0  0
    1.3270    0.3328    0.0944 O   0  0  0  0  0  0  0  0  0  0  0  0
    2.5937   -0.1012   -0.3482 C   0  0  0  0  0  0  0  0  0  0  0  0
    3.4241    1.0830   -0.7794 C   0  0  0  0  0  0  0  0  0  0  0  0
    3.6373    1.3474    0.5936 O   0  0  0  0  0  0  0  0  0  0  0  0
    3.6036   -0.0510    0.7738 C   0  0  0  0  0  0  0  0  0  0  0  0
   -1.1872    0.1355    0.2142 C   0  0  2  0  0  0  0  0  0  0  0  0
   -1.1724    1.2526    1.0131 O   0  0  0  0  0  0  0  0  0  0  0  0
   -1.9429   -0.9755    0.9315 C   0  0  0  0  0  0  0  0  0  0  0  0
   -3.2800   -1.0782    0.2295 C   0  0  0  0  0  0  0  0  0  0  0  0
   -3.4100    0.2526   -0.3380 N   0  0  0  0  0  0  0  0  0  0  0  0
   -2.0923    0.3729   -0.9851 C   0  0  0  0  0  0  0  0  0  0  0  0
    2.6197   -0.9825   -0.9824 H   0  0  0  0  0  0  0  0  0  0  0  0
    4.3985    0.8504   -1.2370 H   0  0  0  0  0  0  0  0  0  0  0  0
    2.8438    1.9021   -1.2653 H   0  0  0  0  0  0  0  0  0  0  0  0
    3.2146   -0.3833    1.7452 H   0  0  0  0  0  0  0  0  0  0  0  0
    4.5639   -0.4670    0.4517 H   0  0  0  0  0  0  0  0  0  0  0  0
   -1.3489    2.0763    0.5132 H   0  0  0  0  0  0  0  0  0  0  0  0
   -2.1300   -0.6973    2.0044 H   0  0  0  0  0  0  0  0  0  0  0  0
   -1.3885   -1.9356    0.9096 H   0  0  0  0  0  0  0  0  0  0  0  0
   -3.2068   -1.7831   -0.6271 H   0  0  0  0  0  0  0  0  0  0  0  0
   -4.1046   -1.3178    0.9244 H   0  0  0  0  0  0  0  0  0  0  0  0
   -3.3569    0.9209    0.4834 H   0  0  0  0  0  0  0  0  0  0  0  0
   -1.9489    1.3428   -1.4537 H   0  0  0  0  0  0  0  0  0  0  0  0
   -2.0229   -0.4935   -1.6666 H   0  0  0  0  0  0  0  0  0  0  0  0
  1  2  2  0
  2  3  1  0
  3  4  1  0
  4  5  1  0
  5  6  1  0
  6  7  1  0
  2  8  1  0
  8  9  1  1
  8 10  1  0
 10 11  1  0
 11 12  1  0
 12 13  1  0
  7  4  1  0
 13  8  1  0
  4 14  1  0
  5 15  1  0
  5 16  1  0
  7 17  1  0
  7 18  1  0
  9 19  1  0
 10 20  1  0
 10 21  1  0
 11 22  1  0
 11 23  1  0
 12 24  1  0
 13 25  1  0
 13 26  1  0
M  END
$$$$

     RDKit          3D

 26 27  0  0  0  0  0  0  0  0999 V2000
   -0.6215   -0.3510    1.6630 O   0  0  0  0  0  0  0  0  0  0  0  0
   -0.2635   -0.0743    0.4935 C   0  0  0  0  0  0  0  0  0  0  0  0
   -1.1919   -0.0103   -0.4989 O   0  0  0  0  0  0  0  0  0  0  0  0
   -2.5680   -0.2282   -0.3586 C   0  0  0  0  0  0  0  0  0  0  0  0
   -3.2154   -1.1502   -1.3319 C   0  0  0  0  0  0  0  0  0  0  0  0
   -4.2627   -0.2446   -1.4931 O   0  0  0  0  0  0  0  0  0  0  0  0
   -3.4740    0.7844   -0.9828 C   0  0  0  0  0  0  0  0  0  0  0  0
    1.1507    0.1723    0.2322 C   0  0  2  0  0  0  0  0  0  0  0  0
    1.4424    0.4670   -1.0780 O   0  0  0  0  0  0  0  0  0  0  0  0
    1.9753   -1.0703    0.5974 C   0  0  0  0  0  0  0  0  0  0  0  0
    3.3503   -0.4653    0.7032 C   0  0  0  0  0  0  0  0  0  0  0  0
    3.1918    0.9354    0.9536 N   0  0  0  0  0  0  0  0  0  0  0  0
    1.7761    1.1878    1.1501 C   0  0  0  0  0  0  0  0  0  0  0  0
   -2.8367   -0.4664    0.6763 H   0  0  0  0  0  0  0  0  0  0  0  0
   -3.5188   -2.1380   -0.9327 H   0  0  0  0  0  0  0  0  0  0  0  0
   -2.7017   -1.2998   -2.2996 H   0  0  0  0  0  0  0  0  0  0  0  0
   -3.0367    1.4562   -1.7241 H   0  0  0  0  0  0  0  0  0  0  0  0
   -4.0758    1.3451   -0.2223 H   0  0  0  0  0  0  0  0  0  0  0  0
    0.9559    1.2460   -1.3969 H   0  0  0  0  0  0  0  0  0  0  0  0
    1.8930   -1.8494   -0.1681 H   0  0  0  0  0  0  0  0  0  0  0  0
    1.6272   -1.4903    1.5568 H   0  0  0  0  0  0  0  0  0  0  0  0
    3.8814   -0.5847   -0.2742 H   0  0  0  0  0  0  0  0  0  0  0  0
    3.9760   -0.9317    1.4896 H   0  0  0  0  0  0  0  0  0  0  0  0
    3.5188    1.5433    0.1698 H   0  0  0  0  0  0  0  0  0  0  0  0
    1.5108    2.2278    0.8864 H   0  0  0  0  0  0  0  0  0  0  0  0
    1.5168    0.9893    2.1892 H   0  0  0  0  0  0  0  0  0  0  0  0
  1  2  2  0
  2  3  1  0
  3  4  1  0
  4  5  1  0
  5  6  1  0
  6  7  1  0
  2  8  1  0
  8  9  1  6
  8 10  1  0
 10 11  1  0
 11 12  1  0
 12 13  1  0
  7  4  1  0
 13  8  1  0
  4 14  1  0
  5 15  1  0
  5 16  1  0
  7 17  1  0
  7 18  1  0
  9 19  1  0
 10 20  1  0
 10 21  1  0
 11 22  1  0
 11 23  1  0
 12 24  1  0
 13 25  1  0
 13 26  1  0
M  END
$$$$

     RDKit          3D

 26 27  0  0  0  0  0  0  0  0999 V2000
    0.5040   -1.8345   -0.1438 O   0  0  0  0  0  0  0  0  0  0  0  0
    0.2062   -0.6345   -0.0682 C   0  0  0  0  0  0  0  0  0  0  0  0
    1.2435    0.2836    0.0055 O   0  0  0  0  0  0  0  0  0  0  0  0
    2.5953   -0.0540    0.0002 C   0  0  0  0  0  0  0  0  0  0  0  0
    3.4574    0.6269    1.0364 C   0  0  0  0  0  0  0  0  0  0  0  0
    4.4608    0.7150    0.0595 O   0  0  0  0  0  0  0  0  0  0  0  0
    3.4422    0.8393   -0.8854 C   0  0  0  0  0  0  0  0  0  0  0  0
   -1.1767   -0.1129   -0.0511 C   0  0  2  0  0  0  0  0  0  0  0  0
   -1.2107    1.2574    0.0389 O   0  0  0  0  0  0  0  0  0  0  0  0
   -1.9741   -0.6764    1.1319 C   0  0  0  0  0  0  0  0  0  0  0  0
   -3.3867   -0.3134    0.6597 C   0  0  0  0  0  0  0  0  0  0  0  0
   -3.3712   -0.4738   -0.7696 N   0  0  0  0  0  0  0  0  0  0  0  0
   -2.0110   -0.5890   -1.1973 C   0  0  0  0  0  0  0  0  0  0  0  0
    2.8463   -1.1320   -0.0679 H   0  0  0  0  0  0  0  0  0  0  0  0
    3.1305    1.6297    1.3149 H   0  0  0  0  0  0  0  0  0  0  0  0
    3.7666   -0.0423    1.8867 H   0  0  0  0  0  0  0  0  0  0  0  0
    3.6680    0.4047   -1.8745 H   0  0  0  0  0  0  0  0  0  0  0  0
    3.0143    1.8553   -0.9268 H   0  0  0  0  0  0  0  0  0  0  0  0
   -0.5201    1.6244   -0.5835 H   0  0  0  0  0  0  0  0  0  0  0  0
   -1.9044   -1.7639    1.1027 H   0  0  0  0  0  0  0  0  0  0  0  0
   -1.7127   -0.2000    2.0739 H   0  0  0  0  0  0  0  0  0  0  0  0
   -3.5043    0.7859    0.8904 H   0  0  0  0  0  0  0  0  0  0  0  0
   -4.1588   -0.8869    1.1771 H   0  0  0  0  0  0  0  0  0  0  0  0
   -3.8618    0.3202   -1.2414 H   0  0  0  0  0  0  0  0  0  0  0  0
   -1.7743    0.0139   -2.0987 H   0  0  0  0  0  0  0  0  0  0  0  0
   -1.7683   -1.6427   -1.4695 H   0  0  0  0  0  0  0  0  0  0  0  0
  1  2  2  0
  2  3  1  0
  3  4  1  0
  4  5  1  0
  5  6  1  0
  6  7  1  0
  2  8  1  0
  8  9  1  1
  8 10  1  0
 10 11  1  0
 11 12  1  0
 12 13  1  0
  7  4  1  0
 13  8  1  0
  4 14  1  0
  5 15  1  0
  5 16  1  0
  7 17  1  0
  7 18  1  0
  9 19  1  0
 10 20  1  0
 10 21  1  0
 11 22  1  0
 11 23  1  0
 12 24  1  0
 13 25  1  0
 13 26  1  0
M  END
$$$$
