
     RDKit          3D

 21 21  0  0  0  0  0  0  0  0999 V2000
   -1.6783    0.3490   -1.4502 N   0  0  0  0  0  0  0  0  0  0  0  0
   -1.1192    0.0126   -0.1728 C   0  0  2  0  0  0  0  0  0  0  0  0
   -0.2943    1.1987    0.2931 C   0  0  2  0  0  0  0  0  0  0  0  0
   -0.4669    2.3168   -0.4754 O   0  0  0  0  0  0  0  0  0  0  0  0
    1.1488    0.6752    0.2534 C   0  0  2  0  0  0  0  0  0  0  0  0
    1.4974    0.5784   -1.0703 O   0  0  0  0  0  0  0  0  0  0  0  0
    0.8719   -0.7349    0.7971 C   0  0  2  0  0  0  0  0  0  0  0  0
    1.9798   -1.5219    0.8206 O   0  0  0  0  0  0  0  0  0  0  0  0
   -0.1603   -1.1650   -0.2428 C   0  0  1  0  0  0  0  0  0  0  0  0
   -0.7460   -2.3640    0.0455 O   0  0  0  0  0  0  0  0  0  0  0  0
   -1.3851   -0.2617   -2.2191 H   0  0  0  0  0  0  0  0  0  0  0  0
   -2.6878    0.5778   -1.4176 H   0  0  0  0  0  0  0  0  0  0  0  0
   -1.8918   -0.2688    0.5764 H   0  0  0  0  0  0  0  0  0  0  0  0
   -0.4981    1.3784    1.3778 H   0  0  0  0  0  0  0  0  0  0  0  0
   -0.3539    3.1187    0.1151 H   0  0  0  0  0  0  0  0  0  0  0  0
    1.8190    1.2439    0.8858 H   0  0  0  0  0  0  0  0  0  0  0  0
    2.3968    0.8799   -1.2973 H   0  0  0  0  0  0  0  0  0  0  0  0
    0.3326   -0.6222    1.7420 H   0  0  0  0  0  0  0  0  0  0  0  0
    2.0792   -1.8765    1.7606 H   0  0  0  0  0  0  0  0  0  0  0  0
    0.2889   -1.1542   -1.2576 H   0  0  0  0  0  0  0  0  0  0  0  0
   -1.1330   -2.3600    0.9359 H   0  0  0  0  0  0  0  0  0  0  0  0
  1  2  1  0
  2  3  1  0
  3  4  1  0
  3  5  1  0
  5  6  1  0
  5  7  1  0
  7  8  1  0
  7  9  1  0
  9 10  1  0
  9  2  1  0
  1 11  1  0
  1 12  1  0
  2 13  1  1
  3 14  1  1
  4 15  1  0
  5 16  1  1
  6 17  1  0
  7 18  1  1
  8 19  1  0
  9 20  1  6
 10 21  1  0
M  END
$$$$

     RDKit          3D

 21 21  0  0  0  0  0  0  0  0999 V2000
   -1.0834   -1.6251    0.8204 N   0  0  0  0  0  0  0  0  0  0  0  0
   -0.7689   -0.7553   -0.3101 C   0  0  2  0  0  0  0  0  0  0  0  0
    0.6483   -0.9296   -0.7616 C   0  0  2  0  0  0  0  0  0  0  0  0
    1.2612   -1.9835   -0.0867 O   0  0  0  0  0  0  0  0  0  0  0  0
    1.3548    0.3796   -0.5792 C   0  0  2  0  0  0  0  0  0  0  0  0
    2.3061    0.2754    0.4426 O   0  0  0  0  0  0  0  0  0  0  0  0
    0.3360    1.3973   -0.1603 C   0  0  2  0  0  0  0  0  0  0  0  0
    0.7326    2.0571    1.0138 O   0  0  0  0  0  0  0  0  0  0  0  0
   -0.9602    0.6837    0.0594 C   0  0  1  0  0  0  0  0  0  0  0  0
   -1.9477    1.3036   -0.7256 O   0  0  0  0  0  0  0  0  0  0  0  0
   -1.6133   -2.4685    0.5368 H   0  0  0  0  0  0  0  0  0  0  0  0
   -1.5527   -1.1076    1.5921 H   0  0  0  0  0  0  0  0  0  0  0  0
   -1.4989   -0.9842   -1.1249 H   0  0  0  0  0  0  0  0  0  0  0  0
    0.6990   -1.1963   -1.8525 H   0  0  0  0  0  0  0  0  0  0  0  0
    1.6444   -1.7229    0.7809 H   0  0  0  0  0  0  0  0  0  0  0  0
    1.8834    0.6951   -1.5125 H   0  0  0  0  0  0  0  0  0  0  0  0
    1.8807    0.3330    1.3433 H   0  0  0  0  0  0  0  0  0  0  0  0
    0.2488    2.1738   -0.9622 H   0  0  0  0  0  0  0  0  0  0  0  0
    0.0201    2.0428    1.7006 H   0  0  0  0  0  0  0  0  0  0  0  0
   -1.2954    0.8265    1.1165 H   0  0  0  0  0  0  0  0  0  0  0  0
   -2.2948    0.6048   -1.3307 H   0  0  0  0  0  0  0  0  0  0  0  0
  1  2  1  0
  2  3  1  0
  3  4  1  0
  3  5  1  0
  5  6  1  0
  5  7  1  0
  7  8  1  0
  7  9  1  0
  9 10  1  0
  9  2  1  0
  1 11  1  0
  1 12  1  0
  2 13  1  6
  3 14  1  6
  4 15  1  0
  5 16  1  6
  6 17  1  0
  7 18  1  6
  8 19  1  0
  9 20  1  1
 10 21  1  0
M  END
$$$$

     RDKit          3D

 21 21  0  0  0  0  0  0  0  0999 V2000
   -1.1253   -2.0961    0.0610 N   0  0  0  0  0  0  0  0  0  0  0  0
   -0.3528   -0.9871    0.4748 C   0  0  2  0  0  0  0  0  0  0  0  0
   -1.0913    0.3312    0.4693 C   0  0  2  0  0  0  0  0  0  0  0  0
   -1.6990    0.4418   -0.7923 O   0  0  0  0  0  0  0  0  0  0  0  0
    0.0274    1.3558    0.4881 C   0  0  2  0  0  0  0  0  0  0  0  0
   -0.1264    2.3020   -0.5303 O   0  0  0  0  0  0  0  0  0  0  0  0
    1.3035    0.6002    0.1870 C   0  0  2  0  0  0  0  0  0  0  0  0
    2.1856    1.3097   -0.5850 O   0  0  0  0  0  0  0  0  0  0  0  0
    0.7729   -0.6481   -0.5141 C   0  0  1  0  0  0  0  0  0  0  0  0
    1.7038   -1.6457   -0.6077 O   0  0  0  0  0  0  0  0  0  0  0  0
   -1.4922   -2.7005    0.8040 H   0  0  0  0  0  0  0  0  0  0  0  0
   -1.7027   -1.9754   -0.7699 H   0  0  0  0  0  0  0  0  0  0  0  0
    0.0587   -1.1651    1.4814 H   0  0  0  0  0  0  0  0  0  0  0  0
   -1.8037    0.4466    1.2848 H   0  0  0  0  0  0  0  0  0  0  0  0
   -2.6593    0.5997   -0.7421 H   0  0  0  0  0  0  0  0  0  0  0  0
    0.0873    1.8293    1.4937 H   0  0  0  0  0  0  0  0  0  0  0  0
   -0.7595    3.0066   -0.2920 H   0  0  0  0  0  0  0  0  0  0  0  0
    1.7726    0.2295    1.1428 H   0  0  0  0  0  0  0  0  0  0  0  0
    3.0811    1.2590   -0.1335 H   0  0  0  0  0  0  0  0  0  0  0  0
    0.3179   -0.3366   -1.4667 H   0  0  0  0  0  0  0  0  0  0  0  0
    1.5016   -2.1568   -1.4532 H   0  0  0  0  0  0  0  0  0  0  0  0
  1  2  1  0
  2  3  1  0
  3  4  1  0
  3  5  1  0
  5  6  1  0
  5  7  1  0
  7  8  1  0
  7  9  1  0
  9 10  1  0
  9  2  1  0
  1 11  1  0
  1 12  1  0
  2 13  1  1
  3 14  1  1
  4 15  1  0
  5 16  1  1
  6 17  1  0
  7 18  1  1
  8 19  1  0
  9 20  1  6
 10 21  1  0
M  END
$$$$

     RDKit          3D

 21 21  0  0  0  0  0  0  0  0999 V2000
   -2.2489    1.0193   -0.1655 N   0  0  0  0  0  0  0  0  0  0  0  0
   -0.8606    0.7885   -0.3664 C   0  0  2  0  0  0  0  0  0  0  0  0
   -0.5773   -0.5401   -1.0790 C   0  0  2  0  0  0  0  0  0  0  0  0
   -1.2119   -1.5262   -0.3170 O   0  0  0  0  0  0  0  0  0  0  0  0
    0.9331   -0.5997   -0.9195 C   0  0  2  0  0  0  0  0  0  0  0  0
    1.4267   -1.8834   -0.9539 O   0  0  0  0  0  0  0  0  0  0  0  0
    1.2571    0.1269    0.3620 C   0  0  2  0  0  0  0  0  0  0  0  0
    2.0055   -0.6117    1.2449 O   0  0  0  0  0  0  0  0  0  0  0  0
   -0.1005    0.5158    0.9256 C   0  0  1  0  0  0  0  0  0  0  0  0
   -0.0606    1.5814    1.7705 O   0  0  0  0  0  0  0  0  0  0  0  0
   -2.7658    0.8137   -1.0584 H   0  0  0  0  0  0  0  0  0  0  0  0
   -2.3818    2.0579   -0.0194 H   0  0  0  0  0  0  0  0  0  0  0  0
   -0.3627    1.5642   -0.9817 H   0  0  0  0  0  0  0  0  0  0  0  0
   -0.9064   -0.5369   -2.1154 H   0  0  0  0  0  0  0  0  0  0  0  0
   -0.5802   -2.1207    0.1399 H   0  0  0  0  0  0  0  0  0  0  0  0
    1.3475   -0.0041   -1.7740 H   0  0  0  0  0  0  0  0  0  0  0  0
    1.4372   -2.3308   -0.0814 H   0  0  0  0  0  0  0  0  0  0  0  0
    1.8016    1.0821    0.1595 H   0  0  0  0  0  0  0  0  0  0  0  0
    2.9619   -0.3262    1.2635 H   0  0  0  0  0  0  0  0  0  0  0  0
   -0.5250   -0.4040    1.3719 H   0  0  0  0  0  0  0  0  0  0  0  0
   -0.5889    1.3337    2.5938 H   0  0  0  0  0  0  0  0  0  0  0  0
  1  2  1  0
  2  3  1  0
  3  4  1  0
  3  5  1  0
  5  6  1  0
  5  7  1  0
  7  8  1  0
  7  9  1  0
  9 10  1  0
  9  2  1  0
  1 11  1  0
  1 12  1  0
  2 13  1  6
  3 14  1  6
  4 15  1  0
  5 16  1  6
  6 17  1  0
  7 18  1  6
  8 19  1  0
  9 20  1  1
 10 21  1  0
M  END
$$$$

     RDKit          3D

 21 21  0  0  0  0  0  0  0  0999 V2000
    0.2932    1.9324    0.2857 N   0  0  0  0  0  0  0  0  0  0  0  0
    0.3257    0.9094   -0.7049 C   0  0  2  0  0  0  0  0  0  0  0  0
   -0.9788    0.1394   -0.8213 C   0  0  2  0  0  0  0  0  0  0  0  0
   -2.0875    0.9269   -0.5909 O   0  0  0  0  0  0  0  0  0  0  0  0
   -0.8564   -1.0062    0.1470 C   0  0  2  0  0  0  0  0  0  0  0  0
   -1.8548   -1.0125    1.1008 O   0  0  0  0  0  0  0  0  0  0  0  0
    0.5333   -0.9215    0.7469 C   0  0  2  0  0  0  0  0  0  0  0  0
    0.5686   -0.0889    1.8679 O   0  0  0  0  0  0  0  0  0  0  0  0
    1.2945   -0.2195   -0.3691 C   0  0  1  0  0  0  0  0  0  0  0  0
    1.3278   -1.0626   -1.4666 O   0  0  0  0  0  0  0  0  0  0  0  0
   -0.5787    2.0272    0.8151 H   0  0  0  0  0  0  0  0  0  0  0  0
    1.1659    2.1015    0.7946 H   0  0  0  0  0  0  0  0  0  0  0  0
    0.6043    1.3960   -1.6769 H   0  0  0  0  0  0  0  0  0  0  0  0
   -1.0093   -0.2702   -1.8558 H   0  0  0  0  0  0  0  0  0  0  0  0
   -2.6490    1.0020   -1.4156 H   0  0  0  0  0  0  0  0  0  0  0  0
   -0.9171   -1.9829   -0.3900 H   0  0  0  0  0  0  0  0  0  0  0  0
   -1.8245   -0.2545    1.7238 H   0  0  0  0  0  0  0  0  0  0  0  0
    0.9551   -1.9058    0.9927 H   0  0  0  0  0  0  0  0  0  0  0  0
    1.5073   -0.0148    2.1400 H   0  0  0  0  0  0  0  0  0  0  0  0
    2.2750    0.1503   -0.0509 H   0  0  0  0  0  0  0  0  0  0  0  0
    1.9056   -1.8456   -1.2728 H   0  0  0  0  0  0  0  0  0  0  0  0
  1  2  1  0
  2  3  1  0
  3  4  1  0
  3  5  1  0
  5  6  1  0
  5  7  1  0
  7  8  1  0
  7  9  1  0
  9 10  1  0
  9  2  1  0
  1 11  1  0
  1 12  1  0
  2 13  1  6
  3 14  1  6
  4 15  1  0
  5 16  1  6
  6 17  1  0
  7 18  1  1
  8 19  1  0
  9 20  1  1
 10 21  1  0
M  END
$$$$

     RDKit          3D

 21 21  0  0  0  0  0  0  0  0999 V2000
   -1.6028    1.1209    1.5277 N   0  0  0  0  0  0  0  0  0  0  0  0
   -0.4816    0.3697    1.0896 C   0  0  2  0  0  0  0  0  0  0  0  0
    0.5464    1.2211    0.3309 C   0  0  2  0  0  0  0  0  0  0  0  0
   -0.1924    1.9858   -0.5769 O   0  0  0  0  0  0  0  0  0  0  0  0
    1.3514    0.2040   -0.4304 C   0  0  2  0  0  0  0  0  0  0  0  0
    1.4820    0.5353   -1.7879 O   0  0  0  0  0  0  0  0  0  0  0  0
    0.6221   -1.1179   -0.3099 C   0  0  2  0  0  0  0  0  0  0  0  0
    0.6719   -1.8777   -1.4506 O   0  0  0  0  0  0  0  0  0  0  0  0
   -0.8016   -0.6323   -0.0039 C   0  0  1  0  0  0  0  0  0  0  0  0
   -1.6252   -1.6444    0.4025 O   0  0  0  0  0  0  0  0  0  0  0  0
   -2.4768    0.9804    1.0142 H   0  0  0  0  0  0  0  0  0  0  0  0
   -1.7382    1.0945    2.5824 H   0  0  0  0  0  0  0  0  0  0  0  0
    0.0438   -0.1643    1.8935 H   0  0  0  0  0  0  0  0  0  0  0  0
    1.1243    1.8548    0.9979 H   0  0  0  0  0  0  0  0  0  0  0  0
   -0.1602    1.6313   -1.4939 H   0  0  0  0  0  0  0  0  0  0  0  0
    2.3481    0.1422    0.0527 H   0  0  0  0  0  0  0  0  0  0  0  0
    2.4450    0.7299   -1.9655 H   0  0  0  0  0  0  0  0  0  0  0  0
    0.9423   -1.6675    0.6076 H   0  0  0  0  0  0  0  0  0  0  0  0
    0.9004   -2.8162   -1.1788 H   0  0  0  0  0  0  0  0  0  0  0  0
   -1.1331   -0.1234   -0.9453 H   0  0  0  0  0  0  0  0  0  0  0  0
   -2.2655   -1.8263   -0.3558 H   0  0  0  0  0  0  0  0  0  0  0  0
  1  2  1  0
  2  3  1  0
  3  4  1  0
  3  5  1  0
  5  6  1  0
  5  7  1  0
  7  8  1  0
  7  9  1  0
  9 10  1  0
  9  2  1  0
  1 11  1  0
  1 12  1  0
  2 13  1  1
  3 14  1  1
  4 15  1  0
  5 16  1  1
  6 17  1  0
  7 18  1  1
  8 19  1  0
  9 20  1  6
 10 21  1  0
M  END
$$$$

     RDKit          3D

 21 21  0  0  0  0  0  0  0  0999 V2000
   -2.0289   -1.4208    0.1925 N   0  0  0  0  0  0  0  0  0  0  0  0
   -0.9342   -0.5674    0.4876 C   0  0  2  0  0  0  0  0  0  0  0  0
   -1.0626    0.8152   -0.1659 C   0  0  2  0  0  0  0  0  0  0  0  0
   -1.1458    0.6760   -1.5528 O   0  0  0  0  0  0  0  0  0  0  0  0
    0.3150    1.3768    0.1801 C   0  0  2  0  0  0  0  0  0  0  0  0
    0.7307    2.3373   -0.7144 O   0  0  0  0  0  0  0  0  0  0  0  0
    1.2479    0.1788    0.2162 C   0  0  2  0  0  0  0  0  0  0  0  0
    2.3435    0.3193   -0.5941 O   0  0  0  0  0  0  0  0  0  0  0  0
    0.3687   -1.0121   -0.1906 C   0  0  1  0  0  0  0  0  0  0  0  0
    0.8340   -2.1991    0.3052 O   0  0  0  0  0  0  0  0  0  0  0  0
   -1.6951   -2.4226    0.3296 H   0  0  0  0  0  0  0  0  0  0  0  0
   -2.7442   -1.2991    0.9717 H   0  0  0  0  0  0  0  0  0  0  0  0
   -0.7246   -0.4044    1.5510 H   0  0  0  0  0  0  0  0  0  0  0  0
   -1.8790    1.4006    0.2541 H   0  0  0  0  0  0  0  0  0  0  0  0
   -1.8446    1.2343   -1.9581 H   0  0  0  0  0  0  0  0  0  0  0  0
    0.1947    1.8046    1.2175 H   0  0  0  0  0  0  0  0  0  0  0  0
    1.4685    2.8461   -0.2693 H   0  0  0  0  0  0  0  0  0  0  0  0
    1.5130   -0.0274    1.2911 H   0  0  0  0  0  0  0  0  0  0  0  0
    3.0237   -0.3384   -0.3047 H   0  0  0  0  0  0  0  0  0  0  0  0
    0.2593   -0.9724   -1.2872 H   0  0  0  0  0  0  0  0  0  0  0  0
    1.7598   -2.3254    0.0405 H   0  0  0  0  0  0  0  0  0  0  0  0
  1  2  1  0
  2  3  1  0
  3  4  1  0
  3  5  1  0
  5  6  1  0
  5  7  1  0
  7  8  1  0
  7  9  1  0
  9 10  1  0
  9  2  1  0
  1 11  1  0
  1 12  1  0
  2 13  1  1
  3 14  1  1
  4 15  1  0
  5 16  1  1
  6 17  1  0
  7 18  1  1
  8 19  1  0
  9 20  1  6
 10 21  1  0
M  END
$$$$

     RDKit          3D

 21 21  0  0  0  0  0  0  0  0999 V2000
    1.3530   -1.2769   -1.0460 N   0  0  0  0  0  0  0  0  0  0  0  0
    0.9639   -0.4975    0.0990 C   0  0  2  0  0  0  0  0  0  0  0  0
   -0.2610   -1.0443    0.7513 C   0  0  2  0  0  0  0  0  0  0  0  0
   -0.5446   -2.3455    0.4790 O   0  0  0  0  0  0  0  0  0  0  0  0
   -1.3387   -0.0758    0.2482 C   0  0  2  0  0  0  0  0  0  0  0  0
   -1.4373   -0.1641   -1.1217 O   0  0  0  0  0  0  0  0  0  0  0  0
   -0.5836    1.2233    0.5609 C   0  0  2  0  0  0  0  0  0  0  0  0
   -1.2535    2.3361    0.1683 O   0  0  0  0  0  0  0  0  0  0  0  0
    0.6788    0.9515   -0.2581 C   0  0  1  0  0  0  0  0  0  0  0  0
    1.6941    1.8049    0.1206 O   0  0  0  0  0  0  0  0  0  0  0  0
    1.9681   -0.7736   -1.6979 H   0  0  0  0  0  0  0  0  0  0  0  0
    0.5410   -1.7582   -1.4927 H   0  0  0  0  0  0  0  0  0  0  0  0
    1.8176   -0.4620    0.8276 H   0  0  0  0  0  0  0  0  0  0  0  0
   -0.1690   -0.8615    1.8515 H   0  0  0  0  0  0  0  0  0  0  0  0
   -1.0428   -2.5303   -0.3297 H   0  0  0  0  0  0  0  0  0  0  0  0
   -2.2698   -0.1620    0.7959 H   0  0  0  0  0  0  0  0  0  0  0  0
   -1.8139   -1.0078   -1.4499 H   0  0  0  0  0  0  0  0  0  0  0  0
   -0.3078    1.1637    1.6177 H   0  0  0  0  0  0  0  0  0  0  0  0
   -0.9136    3.1086    0.7208 H   0  0  0  0  0  0  0  0  0  0  0  0
    0.4555    1.0705   -1.3467 H   0  0  0  0  0  0  0  0  0  0  0  0
    2.4638    1.3010    0.5019 H   0  0  0  0  0  0  0  0  0  0  0  0
  1  2  1  0
  2  3  1  0
  3  4  1  0
  3  5  1  0
  5  6  1  0
  5  7  1  0
  7  8  1  0
  7  9  1  0
  9 10  1  0
  9  2  1  0
  1 11  1  0
  1 12  1  0
  2 13  1  1
  3 14  1  1
  4 15  1  0
  5 16  1  1
  6 17  1  0
  7 18  1  1
  8 19  1  0
  9 20  1  6
 10 21  1  0
M  END
$$$$
