
     RDKit          3D

 24 24  0  0  0  0  0  0  0  0999 V2000
    1.4219   -2.2741   -1.4184 O   0  0  0  0  0  0  0  0  0  0  0  0
    0.3535   -1.1993   -1.3332 S   0  0  0  0  0  4  0  0  0  0  0  0
   -0.9274   -1.7873   -0.2285 C   0  0  0  0  0  0  0  0  0  0  0  0
   -1.7199   -0.6083    0.2495 C   0  0  2  0  0  0  0  0  0  0  0  0
   -2.4547   -0.0556   -0.8030 O   0  0  0  0  0  0  0  0  0  0  0  0
   -0.9142    0.4405    0.9283 C   0  0  2  0  0  0  0  0  0  0  0  0
   -1.8014    1.4104    1.4149 O   0  0  0  0  0  0  0  0  0  0  0  0
    0.0962    1.1282    0.0913 C   0  0  2  0  0  0  0  0  0  0  0  0
   -0.5638    1.9281   -0.8668 O   0  0  0  0  0  0  0  0  0  0  0  0
    1.0869    0.2487   -0.5826 C   0  0  1  0  0  0  0  0  0  0  0  0
    2.2074   -0.2037    0.3243 C   0  0  0  0  0  0  0  0  0  0  0  0
    3.1281   -0.8834   -0.4878 O   0  0  0  0  0  0  0  0  0  0  0  0
   -1.6217   -2.4489   -0.7954 H   0  0  0  0  0  0  0  0  0  0  0  0
   -0.4868   -2.3458    0.6012 H   0  0  0  0  0  0  0  0  0  0  0  0
   -2.4675   -0.9879    0.9783 H   0  0  0  0  0  0  0  0  0  0  0  0
   -3.3535    0.2467   -0.4713 H   0  0  0  0  0  0  0  0  0  0  0  0
   -0.4292   -0.0026    1.8312 H   0  0  0  0  0  0  0  0  0  0  0  0
   -1.3558    2.3036    1.5083 H   0  0  0  0  0  0  0  0  0  0  0  0
    0.6471    1.8410    0.7393 H   0  0  0  0  0  0  0  0  0  0  0  0
   -0.5929    2.8710   -0.6049 H   0  0  0  0  0  0  0  0  0  0  0  0
    1.5698    0.8373   -1.4036 H   0  0  0  0  0  0  0  0  0  0  0  0
    1.8451   -0.9415    1.0647 H   0  0  0  0  0  0  0  0  0  0  0  0
    2.7168    0.6544    0.7791 H   0  0  0  0  0  0  0  0  0  0  0  0
    3.6159   -0.1715   -0.9927 H   0  0  0  0  0  0  0  0  0  0  0  0
  1  2  2  0
  2  3  1  1
  3  4  1  0
  4  5  1  0
  4  6  1  0
  6  7  1  0
  6  8  1  0
  8  9  1  0
  8 10  1  0
 10 11  1  0
 11 12  1  0
 10  2  1  0
  3 13  1  0
  3 14  1  0
  4 15  1  1
  5 16  1  0
  6 17  1  1
  7 18  1  0
  8 19  1  1
  9 20  1  0
 10 21  1  6
 11 22  1  0
 11 23  1  0
 12 24  1  0
M  END
$$$$

     RDKit          3D

 24 24  0  0  0  0  0  0  0  0999 V2000
   -0.4457   -2.3806   -1.2780 O   0  0  0  0  0  0  0  0  0  0  0  0
   -0.5198   -1.8792    0.1752 S   0  0  0  0  0  4  0  0  0  0  0  0
    1.1910   -1.6790    0.7141 C   0  0  0  0  0  0  0  0  0  0  0  0
    1.8699   -0.5468   -0.0536 C   0  0  2  0  0  0  0  0  0  0  0  0
    3.0594   -0.2794    0.6350 O   0  0  0  0  0  0  0  0  0  0  0  0
    1.0540    0.7010   -0.0361 C   0  0  2  0  0  0  0  0  0  0  0  0
    0.7846    1.0277    1.3013 O   0  0  0  0  0  0  0  0  0  0  0  0
   -0.2663    0.5810   -0.7386 C   0  0  2  0  0  0  0  0  0  0  0  0
   -0.7795    1.8301   -1.0527 O   0  0  0  0  0  0  0  0  0  0  0  0
   -1.1735   -0.2033    0.1738 C   0  0  1  0  0  0  0  0  0  0  0  0
   -2.6132   -0.1410   -0.2243 C   0  0  0  0  0  0  0  0  0  0  0  0
   -3.0039    1.1954   -0.1887 O   0  0  0  0  0  0  0  0  0  0  0  0
    1.7584   -2.6000    0.6025 H   0  0  0  0  0  0  0  0  0  0  0  0
    1.1640   -1.3535    1.7920 H   0  0  0  0  0  0  0  0  0  0  0  0
    2.1194   -0.8590   -1.0892 H   0  0  0  0  0  0  0  0  0  0  0  0
    3.4948    0.5327    0.2555 H   0  0  0  0  0  0  0  0  0  0  0  0
    1.6346    1.5143   -0.4787 H   0  0  0  0  0  0  0  0  0  0  0  0
    1.2185    1.8673    1.5769 H   0  0  0  0  0  0  0  0  0  0  0  0
   -0.1347    0.0121   -1.6973 H   0  0  0  0  0  0  0  0  0  0  0  0
   -0.1415    2.2533   -1.6821 H   0  0  0  0  0  0  0  0  0  0  0  0
   -1.0865    0.1679    1.2232 H   0  0  0  0  0  0  0  0  0  0  0  0
   -2.8059   -0.5730   -1.2169 H   0  0  0  0  0  0  0  0  0  0  0  0
   -3.1995   -0.6716    0.5528 H   0  0  0  0  0  0  0  0  0  0  0  0
   -3.1786    1.4835    0.7339 H   0  0  0  0  0  0  0  0  0  0  0  0
  1  2  2  0
  2  3  1  6
  3  4  1  0
  4  5  1  0
  4  6  1  0
  6  7  1  0
  6  8  1  0
  8  9  1  0
  8 10  1  0
 10 11  1  0
 11 12  1  0
 10  2  1  0
  3 13  1  0
  3 14  1  0
  4 15  1  6
  5 16  1  0
  6 17  1  6
  7 18  1  0
  8 19  1  6
  9 20  1  0
 10 21  1  1
 11 22  1  0
 11 23  1  0
 12 24  1  0
M  END
$$$$

     RDKit          3D

 24 24  0  0  0  0  0  0  0  0999 V2000
   -0.3660    2.7082    1.0715 O   0  0  0  0  0  0  0  0  0  0  0  0
   -0.5959    1.2576    0.7620 S   0  0  0  0  0  4  0  0  0  0  0  0
   -1.5307    1.0438   -0.7833 C   0  0  0  0  0  0  0  0  0  0  0  0
   -1.8231   -0.4365   -0.9004 C   0  0  2  0  0  0  0  0  0  0  0  0
   -3.0206   -0.6975   -0.2346 O   0  0  0  0  0  0  0  0  0  0  0  0
   -0.7499   -1.2449   -0.2387 C   0  0  2  0  0  0  0  0  0  0  0  0
   -0.9767   -1.2489    1.1378 O   0  0  0  0  0  0  0  0  0  0  0  0
    0.6407   -0.7256   -0.5161 C   0  0  2  0  0  0  0  0  0  0  0  0
    1.5602   -1.7410   -0.4125 O   0  0  0  0  0  0  0  0  0  0  0  0
    0.9426    0.3472    0.5414 C   0  0  1  0  0  0  0  0  0  0  0  0
    1.9945    1.2793   -0.0368 C   0  0  0  0  0  0  0  0  0  0  0  0
    3.1605    0.5430   -0.1911 O   0  0  0  0  0  0  0  0  0  0  0  0
   -2.4548    1.6121   -0.6768 H   0  0  0  0  0  0  0  0  0  0  0  0
   -0.9229    1.3879   -1.6226 H   0  0  0  0  0  0  0  0  0  0  0  0
   -1.9488   -0.6861   -1.9821 H   0  0  0  0  0  0  0  0  0  0  0  0
   -3.0868   -0.0348    0.5083 H   0  0  0  0  0  0  0  0  0  0  0  0
   -0.8387   -2.2990   -0.6192 H   0  0  0  0  0  0  0  0  0  0  0  0
   -0.4622   -2.0199    1.5300 H   0  0  0  0  0  0  0  0  0  0  0  0
    0.7046   -0.2718   -1.5384 H   0  0  0  0  0  0  0  0  0  0  0  0
    1.4702   -2.2352    0.4239 H   0  0  0  0  0  0  0  0  0  0  0  0
    1.2641   -0.1197    1.4719 H   0  0  0  0  0  0  0  0  0  0  0  0
    1.6920    1.6539   -1.0137 H   0  0  0  0  0  0  0  0  0  0  0  0
    2.1822    2.0991    0.6660 H   0  0  0  0  0  0  0  0  0  0  0  0
    3.1655   -0.1713    0.4668 H   0  0  0  0  0  0  0  0  0  0  0  0
  1  2  2  0
  2  3  1  6
  3  4  1  0
  4  5  1  0
  4  6  1  0
  6  7  1  0
  6  8  1  0
  8  9  1  0
  8 10  1  0
 10 11  1  0
 11 12  1  0
 10  2  1  0
  3 13  1  0
  3 14  1  0
  4 15  1  6
  5 16  1  0
  6 17  1  6
  7 18  1  0
  8 19  1  6
  9 20  1  0
 10 21  1  1
 11 22  1  0
 11 23  1  0
 12 24  1  0
M  END
$$$$

     RDKit          3D

 24 24  0  0  0  0  0  0  0  0999 V2000
    1.0102    2.7371   -0.2310 O   0  0  0  0  0  0  0  0  0  0  0  0
    0.1387    1.6818    0.3811 S   0  0  0  0  0  4  0  0  0  0  0  0
   -1.4684    1.5369   -0.3572 C   0  0  0  0  0  0  0  0  0  0  0  0
   -1.9447    0.1044   -0.0773 C   0  0  2  0  0  0  0  0  0  0  0  0
   -1.8985   -0.0404    1.3134 O   0  0  0  0  0  0  0  0  0  0  0  0
   -0.9326   -0.8002   -0.6955 C   0  0  2  0  0  0  0  0  0  0  0  0
   -1.5688   -2.0431   -0.9180 O   0  0  0  0  0  0  0  0  0  0  0  0
    0.2663   -1.0558    0.1368 C   0  0  2  0  0  0  0  0  0  0  0  0
   -0.0854   -1.9889    1.1377 O   0  0  0  0  0  0  0  0  0  0  0  0
    0.9439    0.1424    0.6870 C   0  0  1  0  0  0  0  0  0  0  0  0
    2.4134    0.2188    0.2486 C   0  0  0  0  0  0  0  0  0  0  0  0
    2.5299    0.4999   -1.0900 O   0  0  0  0  0  0  0  0  0  0  0  0
   -1.4102    1.6370   -1.4750 H   0  0  0  0  0  0  0  0  0  0  0  0
   -2.1838    2.2631    0.0726 H   0  0  0  0  0  0  0  0  0  0  0  0
   -2.9611   -0.0474   -0.4559 H   0  0  0  0  0  0  0  0  0  0  0  0
   -1.9219    0.8500    1.7736 H   0  0  0  0  0  0  0  0  0  0  0  0
   -0.7020   -0.4136   -1.7157 H   0  0  0  0  0  0  0  0  0  0  0  0
   -2.1172   -2.0311   -1.7372 H   0  0  0  0  0  0  0  0  0  0  0  0
    1.0117   -1.6048   -0.5029 H   0  0  0  0  0  0  0  0  0  0  0  0
    0.6561   -1.9267    1.8048 H   0  0  0  0  0  0  0  0  0  0  0  0
    1.0006    0.0113    1.8084 H   0  0  0  0  0  0  0  0  0  0  0  0
    2.9566    0.9296    0.8924 H   0  0  0  0  0  0  0  0  0  0  0  0
    2.8661   -0.7925    0.4190 H   0  0  0  0  0  0  0  0  0  0  0  0
    3.4011    0.1322   -1.4198 H   0  0  0  0  0  0  0  0  0  0  0  0
  1  2  2  0
  2  3  1  6
  3  4  1  0
  4  5  1  0
  4  6  1  0
  6  7  1  0
  6  8  1  0
  8  9  1  0
  8 10  1  0
 10 11  1  0
 11 12  1  0
 10  2  1  0
  3 13  1  0
  3 14  1  0
  4 15  1  6
  5 16  1  0
  6 17  1  6
  7 18  1  0
  8 19  1  6
  9 20  1  0
 10 21  1  1
 11 22  1  0
 11 23  1  0
 12 24  1  0
M  END
$$$$

     RDKit          3D

 24 24  0  0  0  0  0  0  0  0999 V2000
    1.0319   -1.8749    1.6484 O   0  0  0  0  0  0  0  0  0  0  0  0
    0.5133   -1.6374    0.2374 S   0  0  0  0  0  4  0  0  0  0  0  0
   -1.2734   -1.5172    0.1944 C   0  0  0  0  0  0  0  0  0  0  0  0
   -1.7958   -0.1865    0.5635 C   0  0  2  0  0  0  0  0  0  0  0  0
   -3.1367   -0.1274    0.1049 O   0  0  0  0  0  0  0  0  0  0  0  0
   -1.1012    0.9987    0.0468 C   0  0  2  0  0  0  0  0  0  0  0  0
   -1.4896    1.3089   -1.2779 O   0  0  0  0  0  0  0  0  0  0  0  0
    0.3708    1.0518    0.1142 C   0  0  2  0  0  0  0  0  0  0  0  0
    0.7726    2.1868   -0.6350 O   0  0  0  0  0  0  0  0  0  0  0  0
    1.1247   -0.0951   -0.4340 C   0  0  1  0  0  0  0  0  0  0  0  0
    2.5855    0.0450   -0.0111 C   0  0  0  0  0  0  0  0  0  0  0  0
    3.3556   -1.0039   -0.4891 O   0  0  0  0  0  0  0  0  0  0  0  0
   -1.6690   -2.2835    0.8983 H   0  0  0  0  0  0  0  0  0  0  0  0
   -1.6155   -1.8462   -0.8261 H   0  0  0  0  0  0  0  0  0  0  0  0
   -1.8980   -0.1511    1.6872 H   0  0  0  0  0  0  0  0  0  0  0  0
   -3.2580   -0.7599   -0.6626 H   0  0  0  0  0  0  0  0  0  0  0  0
   -1.4748    1.8836    0.6449 H   0  0  0  0  0  0  0  0  0  0  0  0
   -2.1866    0.7033   -1.5987 H   0  0  0  0  0  0  0  0  0  0  0  0
    0.7567    1.2611    1.1507 H   0  0  0  0  0  0  0  0  0  0  0  0
    0.6985    3.0105   -0.1288 H   0  0  0  0  0  0  0  0  0  0  0  0
    1.1032   -0.1356   -1.5325 H   0  0  0  0  0  0  0  0  0  0  0  0
    3.0342    0.9832   -0.4023 H   0  0  0  0  0  0  0  0  0  0  0  0
    2.6872    0.0357    1.0984 H   0  0  0  0  0  0  0  0  0  0  0  0
    2.8643   -1.8500   -0.3910 H   0  0  0  0  0  0  0  0  0  0  0  0
  1  2  2  0
  2  3  1  1
  3  4  1  0
  4  5  1  0
  4  6  1  0
  6  7  1  0
  6  8  1  0
  8  9  1  0
  8 10  1  0
 10 11  1  0
 11 12  1  0
 10  2  1  0
  3 13  1  0
  3 14  1  0
  4 15  1  1
  5 16  1  0
  6 17  1  1
  7 18  1  0
  8 19  1  1
  9 20  1  0
 10 21  1  6
 11 22  1  0
 11 23  1  0
 12 24  1  0
M  END
$$$$

     RDKit          3D

 24 24  0  0  0  0  0  0  0  0999 V2000
   -0.8856   -2.7894    0.7858 O   0  0  0  0  0  0  0  0  0  0  0  0
   -0.0313   -1.5307    0.9770 S   0  0  0  0  0  4  0  0  0  0  0  0
    1.1604   -1.4937   -0.3569 C   0  0  0  0  0  0  0  0  0  0  0  0
    1.7639   -0.0880   -0.2930 C   0  0  2  0  0  0  0  0  0  0  0  0
    2.2989    0.1739    0.9494 O   0  0  0  0  0  0  0  0  0  0  0  0
    0.7059    0.8606   -0.7188 C   0  0  2  0  0  0  0  0  0  0  0  0
    1.3359    2.1023   -0.9751 O   0  0  0  0  0  0  0  0  0  0  0  0
   -0.3892    1.1057    0.2434 C   0  0  2  0  0  0  0  0  0  0  0  0
    0.0773    2.0414    1.1969 O   0  0  0  0  0  0  0  0  0  0  0  0
   -1.0014   -0.0565    0.9062 C   0  0  1  0  0  0  0  0  0  0  0  0
   -2.3632   -0.4215    0.2990 C   0  0  0  0  0  0  0  0  0  0  0  0
   -2.1497   -0.9300   -0.9610 O   0  0  0  0  0  0  0  0  0  0  0  0
    0.5879   -1.5253   -1.3086 H   0  0  0  0  0  0  0  0  0  0  0  0
    1.9141   -2.2734   -0.3105 H   0  0  0  0  0  0  0  0  0  0  0  0
    2.5915   -0.0456   -1.0279 H   0  0  0  0  0  0  0  0  0  0  0  0
    3.2562   -0.0743    0.9983 H   0  0  0  0  0  0  0  0  0  0  0  0
    0.2984    0.5222   -1.6902 H   0  0  0  0  0  0  0  0  0  0  0  0
    1.6047    2.1721   -1.9337 H   0  0  0  0  0  0  0  0  0  0  0  0
   -1.2027    1.6571   -0.3027 H   0  0  0  0  0  0  0  0  0  0  0  0
    0.3498    1.5610    1.9939 H   0  0  0  0  0  0  0  0  0  0  0  0
   -1.2491    0.2389    1.9693 H   0  0  0  0  0  0  0  0  0  0  0  0
   -2.8894   -1.1421    0.9478 H   0  0  0  0  0  0  0  0  0  0  0  0
   -3.0108    0.4988    0.2402 H   0  0  0  0  0  0  0  0  0  0  0  0
   -2.7724   -0.5634   -1.6290 H   0  0  0  0  0  0  0  0  0  0  0  0
  1  2  2  0
  2  3  1  6
  3  4  1  0
  4  5  1  0
  4  6  1  0
  6  7  1  0
  6  8  1  0
  8  9  1  0
  8 10  1  0
 10 11  1  0
 11 12  1  0
 10  2  1  0
  3 13  1  0
  3 14  1  0
  4 15  1  6
  5 16  1  0
  6 17  1  6
  7 18  1  0
  8 19  1  6
  9 20  1  0
 10 21  1  1
 11 22  1  0
 11 23  1  0
 12 24  1  0
M  END
$$$$

     RDKit          3D

 24 24  0  0  0  0  0  0  0  0999 V2000
   -1.0407    2.5561   -0.2851 O   0  0  0  0  0  0  0  0  0  0  0  0
   -0.5365    1.3918   -1.1167 S   0  0  0  0  0  4  0  0  0  0  0  0
    1.2448    1.2040   -0.9932 C   0  0  0  0  0  0  0  0  0  0  0  0
    1.5257    0.6925    0.3830 C   0  0  2  0  0  0  0  0  0  0  0  0
    2.9369    0.6478    0.5045 O   0  0  0  0  0  0  0  0  0  0  0  0
    0.9051   -0.5773    0.7573 C   0  0  2  0  0  0  0  0  0  0  0  0
    1.9280   -1.5619    0.7766 O   0  0  0  0  0  0  0  0  0  0  0  0
   -0.2141   -1.1118   -0.0172 C   0  0  2  0  0  0  0  0  0  0  0  0
    0.2993   -1.9425   -1.0422 O   0  0  0  0  0  0  0  0  0  0  0  0
   -1.2190   -0.1726   -0.5676 C   0  0  1  0  0  0  0  0  0  0  0  0
   -2.4271    0.0276    0.3275 C   0  0  0  0  0  0  0  0  0  0  0  0
   -2.1515    0.7455    1.4625 O   0  0  0  0  0  0  0  0  0  0  0  0
    1.6850    2.2365   -1.0587 H   0  0  0  0  0  0  0  0  0  0  0  0
    1.6264    0.5823   -1.7991 H   0  0  0  0  0  0  0  0  0  0  0  0
    1.2241    1.5165    1.0960 H   0  0  0  0  0  0  0  0  0  0  0  0
    3.2918   -0.2324    0.2456 H   0  0  0  0  0  0  0  0  0  0  0  0
    0.5945   -0.5152    1.8439 H   0  0  0  0  0  0  0  0  0  0  0  0
    1.6090   -2.4167    0.4444 H   0  0  0  0  0  0  0  0  0  0  0  0
   -0.7849   -1.8338    0.6320 H   0  0  0  0  0  0  0  0  0  0  0  0
    0.1393   -1.5244   -1.9147 H   0  0  0  0  0  0  0  0  0  0  0  0
   -1.6418   -0.6427   -1.5068 H   0  0  0  0  0  0  0  0  0  0  0  0
   -2.8619   -0.9723    0.5239 H   0  0  0  0  0  0  0  0  0  0  0  0
   -3.1906    0.5517   -0.3193 H   0  0  0  0  0  0  0  0  0  0  0  0
   -2.9419    1.3512    1.6234 H   0  0  0  0  0  0  0  0  0  0  0  0
  1  2  2  0
  2  3  1  1
  3  4  1  0
  4  5  1  0
  4  6  1  0
  6  7  1  0
  6  8  1  0
  8  9  1  0
  8 10  1  0
 10 11  1  0
 11 12  1  0
 10  2  1  0
  3 13  1  0
  3 14  1  0
  4 15  1  1
  5 16  1  0
  6 17  1  1
  7 18  1  0
  8 19  1  1
  9 20  1  0
 10 21  1  6
 11 22  1  0
 11 23  1  0
 12 24  1  0
M  END
$$$$

     RDKit          3D

 24 24  0  0  0  0  0  0  0  0999 V2000
    1.0462    0.8618   -2.3912 O   0  0  0  0  0  0  0  0  0  0  0  0
    0.5930    1.3904   -1.0393 S   0  0  0  0  0  4  0  0  0  0  0  0
   -1.1732    1.4830   -0.9177 C   0  0  0  0  0  0  0  0  0  0  0  0
   -1.8743    0.2671   -0.4691 C   0  0  2  0  0  0  0  0  0  0  0  0
   -2.9366    0.6873    0.3773 O   0  0  0  0  0  0  0  0  0  0  0  0
   -1.1633   -0.7984    0.2187 C   0  0  2  0  0  0  0  0  0  0  0  0
   -1.3283   -0.7238    1.6233 O   0  0  0  0  0  0  0  0  0  0  0  0
    0.2859   -0.9850   -0.0363 C   0  0  2  0  0  0  0  0  0  0  0  0
    0.7685   -2.0153    0.7469 O   0  0  0  0  0  0  0  0  0  0  0  0
    1.1248    0.2388    0.2382 C   0  0  1  0  0  0  0  0  0  0  0  0
    2.5751   -0.1567    0.0484 C   0  0  0  0  0  0  0  0  0  0  0  0
    3.4340    0.9301    0.0998 O   0  0  0  0  0  0  0  0  0  0  0  0
   -1.5386    1.8432   -1.9263 H   0  0  0  0  0  0  0  0  0  0  0  0
   -1.3897    2.3662   -0.2454 H   0  0  0  0  0  0  0  0  0  0  0  0
   -2.4366   -0.1486   -1.3609 H   0  0  0  0  0  0  0  0  0  0  0  0
   -2.4889    1.1595    1.1459 H   0  0  0  0  0  0  0  0  0  0  0  0
   -1.6334   -1.7953   -0.0471 H   0  0  0  0  0  0  0  0  0  0  0  0
   -2.0476   -1.2876    1.9456 H   0  0  0  0  0  0  0  0  0  0  0  0
    0.4147   -1.2086   -1.1306 H   0  0  0  0  0  0  0  0  0  0  0  0
    0.0818   -2.6539    1.0479 H   0  0  0  0  0  0  0  0  0  0  0  0
    0.9124    0.6631    1.2241 H   0  0  0  0  0  0  0  0  0  0  0  0
    2.8154   -0.8971    0.8366 H   0  0  0  0  0  0  0  0  0  0  0  0
    2.6659   -0.6665   -0.9188 H   0  0  0  0  0  0  0  0  0  0  0  0
    3.2927    1.4465    0.9300 H   0  0  0  0  0  0  0  0  0  0  0  0
  1  2  2  0
  2  3  1  6
  3  4  1  0
  4  5  1  0
  4  6  1  0
  6  7  1  0
  6  8  1  0
  8  9  1  0
  8 10  1  0
 10 11  1  0
 11 12  1  0
 10  2  1  0
  3 13  1  0
  3 14  1  0
  4 15  1  6
  5 16  1  0
  6 17  1  6
  7 18  1  0
  8 19  1  6
  9 20  1  0
 10 21  1  1
 11 22  1  0
 11 23  1  0
 12 24  1  0
M  END
$$$$
