
     RDKit          3D

 22 23  0  0  0  0  0  0  0  0999 V2000
    3.8845   -0.0009    0.6716 C   0  0  0  0  0  0  0  0  0  0  0  0
    2.6270   -0.2384   -0.0277 N   0  0  0  0  0  0  0  0  0  0  0  0
    2.4587   -0.8700   -1.1741 N   0  0  0  0  0  0  0  0  0  0  0  0
    1.1520   -0.8779   -1.4806 N   0  0  0  0  0  0  0  0  0  0  0  0
    0.4719   -0.2441   -0.5217 C   0  0  0  0  0  0  0  0  0  0  0  0
   -0.9581   -0.0093   -0.4699 C   0  0  2  0  0  0  0  0  0  0  0  0
   -1.4337    0.8084   -1.4894 O   0  0  0  0  0  0  0  0  0  0  0  0
   -1.3619    0.6906    0.8479 C   0  0  0  0  0  0  0  0  0  0  0  0
   -2.8558    0.5170    0.7241 C   0  0  0  0  0  0  0  0  0  0  0  0
   -3.0860   -0.6053   -0.0582 O   0  0  0  0  0  0  0  0  0  0  0  0
   -1.8399   -1.2196   -0.3066 C   0  0  0  0  0  0  0  0  0  0  0  0
    1.4162    0.1495    0.3837 N   0  0  0  0  0  0  0  0  0  0  0  0
    3.6315    0.4743    1.6609 H   0  0  0  0  0  0  0  0  0  0  0  0
    4.4135   -0.9243    0.9188 H   0  0  0  0  0  0  0  0  0  0  0  0
    4.5406    0.6907    0.1189 H   0  0  0  0  0  0  0  0  0  0  0  0
   -0.9765    1.6835   -1.4127 H   0  0  0  0  0  0  0  0  0  0  0  0
   -1.0080    0.0281    1.6747 H   0  0  0  0  0  0  0  0  0  0  0  0
   -1.0072    1.7083    0.8791 H   0  0  0  0  0  0  0  0  0  0  0  0
   -3.3462    0.4236    1.6965 H   0  0  0  0  0  0  0  0  0  0  0  0
   -3.2099    1.4403    0.1807 H   0  0  0  0  0  0  0  0  0  0  0  0
   -1.5975   -1.7742    0.6075 H   0  0  0  0  0  0  0  0  0  0  0  0
   -1.9153   -1.8502   -1.2045 H   0  0  0  0  0  0  0  0  0  0  0  0
  1  2  1  0
  2  3  1  0
  3  4  2  0
  4  5  1  0
  5  6  1  0
  6  7  1  6
  6  8  1  0
  8  9  1  0
  9 10  1  0
 10 11  1  0
  5 12  2  0
 12  2  1  0
 11  6  1  0
  1 13  1  0
  1 14  1  0
  1 15  1  0
  7 16  1  0
  8 17  1  0
  8 18  1  0
  9 19  1  0
  9 20  1  0
 11 21  1  0
 11 22  1  0
M  END
$$$$

     RDKit          3D

 22 23  0  0  0  0  0  0  0  0999 V2000
    4.0734   -0.0822    0.0697 C   0  0  0  0  0  0  0  0  0  0  0  0
    2.6600   -0.4634    0.1934 N   0  0  0  0  0  0  0  0  0  0  0  0
    2.1592   -1.6256    0.6276 N   0  0  0  0  0  0  0  0  0  0  0  0
    0.8236   -1.5786    0.5908 N   0  0  0  0  0  0  0  0  0  0  0  0
    0.4490   -0.3840    0.1318 C   0  0  0  0  0  0  0  0  0  0  0  0
   -0.8702    0.1958   -0.1087 C   0  0  2  0  0  0  0  0  0  0  0  0
   -0.7962    1.5203   -0.5633 O   0  0  0  0  0  0  0  0  0  0  0  0
   -1.7505    0.2086    1.1511 C   0  0  0  0  0  0  0  0  0  0  0  0
   -3.0764    0.5205    0.4426 C   0  0  0  0  0  0  0  0  0  0  0  0
   -3.0722   -0.2910   -0.6820 O   0  0  0  0  0  0  0  0  0  0  0  0
   -1.7613   -0.5809   -1.0291 C   0  0  0  0  0  0  0  0  0  0  0  0
    1.6136    0.2739   -0.1006 N   0  0  0  0  0  0  0  0  0  0  0  0
    4.7213   -0.9533    0.0438 H   0  0  0  0  0  0  0  0  0  0  0  0
    4.3211    0.6494    0.8845 H   0  0  0  0  0  0  0  0  0  0  0  0
    4.1470    0.4853   -0.8796 H   0  0  0  0  0  0  0  0  0  0  0  0
   -0.2920    2.0674    0.0943 H   0  0  0  0  0  0  0  0  0  0  0  0
   -1.8594   -0.8163    1.5431 H   0  0  0  0  0  0  0  0  0  0  0  0
   -1.4607    0.9700    1.8643 H   0  0  0  0  0  0  0  0  0  0  0  0
   -2.9442    1.5707    0.0472 H   0  0  0  0  0  0  0  0  0  0  0  0
   -3.9318    0.4001    1.0932 H   0  0  0  0  0  0  0  0  0  0  0  0
   -1.6082   -1.6665   -0.8268 H   0  0  0  0  0  0  0  0  0  0  0  0
   -1.5453   -0.4203   -2.0938 H   0  0  0  0  0  0  0  0  0  0  0  0
  1  2  1  0
  2  3  1  0
  3  4  2  0
  4  5  1  0
  5  6  1  0
  6  7  1  6
  6  8  1  0
  8  9  1  0
  9 10  1  0
 10 11  1  0
  5 12  2  0
 12  2  1  0
 11  6  1  0
  1 13  1  0
  1 14  1  0
  1 15  1  0
  7 16  1  0
  8 17  1  0
  8 18  1  0
  9 19  1  0
  9 20  1  0
 11 21  1  0
 11 22  1  0
M  END
$$$$

     RDKit          3D

 22 23  0  0  0  0  0  0  0  0999 V2000
    3.7973    0.5696    0.0368 C   0  0  0  0  0  0  0  0  0  0  0  0
    2.5468   -0.1315    0.3197 N   0  0  0  0  0  0  0  0  0  0  0  0
    2.3453   -1.2004    1.0529 N   0  0  0  0  0  0  0  0  0  0  0  0
    1.0661   -1.5339    1.0667 N   0  0  0  0  0  0  0  0  0  0  0  0
    0.4205   -0.6344    0.3067 C   0  0  0  0  0  0  0  0  0  0  0  0
   -1.0032   -0.5005   -0.0393 C   0  0  2  0  0  0  0  0  0  0  0  0
   -1.2341   -1.2268   -1.2043 O   0  0  0  0  0  0  0  0  0  0  0  0
   -1.3013    0.9718   -0.2280 C   0  0  0  0  0  0  0  0  0  0  0  0
   -2.7263    1.0530    0.2220 C   0  0  0  0  0  0  0  0  0  0  0  0
   -2.8788    0.1147    1.2185 O   0  0  0  0  0  0  0  0  0  0  0  0
   -1.9427   -0.8675    1.0681 C   0  0  0  0  0  0  0  0  0  0  0  0
    1.3647    0.2139   -0.1373 N   0  0  0  0  0  0  0  0  0  0  0  0
    3.6278    1.3321   -0.7469 H   0  0  0  0  0  0  0  0  0  0  0  0
    4.1070    1.1125    0.9491 H   0  0  0  0  0  0  0  0  0  0  0  0
    4.5165   -0.1688   -0.3248 H   0  0  0  0  0  0  0  0  0  0  0  0
   -0.6488   -2.0268   -1.2449 H   0  0  0  0  0  0  0  0  0  0  0  0
   -1.1319    1.2506   -1.2768 H   0  0  0  0  0  0  0  0  0  0  0  0
   -0.6628    1.5674    0.4673 H   0  0  0  0  0  0  0  0  0  0  0  0
   -2.9283    2.0981    0.5586 H   0  0  0  0  0  0  0  0  0  0  0  0
   -3.4115    0.8593   -0.6274 H   0  0  0  0  0  0  0  0  0  0  0  0
   -2.4909   -1.8271    0.8572 H   0  0  0  0  0  0  0  0  0  0  0  0
   -1.4312   -1.0253    2.0343 H   0  0  0  0  0  0  0  0  0  0  0  0
  1  2  1  0
  2  3  1  0
  3  4  2  0
  4  5  1  0
  5  6  1  0
  6  7  1  6
  6  8  1  0
  8  9  1  0
  9 10  1  0
 10 11  1  0
  5 12  2  0
 12  2  1  0
 11  6  1  0
  1 13  1  0
  1 14  1  0
  1 15  1  0
  7 16  1  0
  8 17  1  0
  8 18  1  0
  9 19  1  0
  9 20  1  0
 11 21  1  0
 11 22  1  0
M  END
$$$$

     RDKit          3D

 22 23  0  0  0  0  0  0  0  0999 V2000
    3.6226    0.3175   -0.1436 C   0  0  0  0  0  0  0  0  0  0  0  0
    2.4079   -0.4574   -0.2709 N   0  0  0  0  0  0  0  0  0  0  0  0
    2.1871   -1.6776   -0.6679 N   0  0  0  0  0  0  0  0  0  0  0  0
    0.8895   -1.9600   -0.6872 N   0  0  0  0  0  0  0  0  0  0  0  0
    0.2352   -0.8884   -0.2758 C   0  0  0  0  0  0  0  0  0  0  0  0
   -1.2203   -0.5806   -0.2084 C   0  0  2  0  0  0  0  0  0  0  0  0
   -1.9816   -1.5369   -0.9084 O   0  0  0  0  0  0  0  0  0  0  0  0
   -1.4821    0.8085   -0.8162 C   0  0  0  0  0  0  0  0  0  0  0  0
   -1.9640    1.5853    0.4260 C   0  0  0  0  0  0  0  0  0  0  0  0
   -2.6334    0.5897    1.1095 O   0  0  0  0  0  0  0  0  0  0  0  0
   -1.6550   -0.3921    1.2203 C   0  0  0  0  0  0  0  0  0  0  0  0
    1.1746    0.0563   -0.0039 N   0  0  0  0  0  0  0  0  0  0  0  0
    4.0985    0.5975   -1.0688 H   0  0  0  0  0  0  0  0  0  0  0  0
    4.3795   -0.3383    0.4048 H   0  0  0  0  0  0  0  0  0  0  0  0
    3.4086    1.2277    0.4755 H   0  0  0  0  0  0  0  0  0  0  0  0
   -2.2986   -2.2816   -0.4097 H   0  0  0  0  0  0  0  0  0  0  0  0
   -2.1630    0.8129   -1.6265 H   0  0  0  0  0  0  0  0  0  0  0  0
   -0.4531    1.2079   -1.1031 H   0  0  0  0  0  0  0  0  0  0  0  0
   -1.0568    1.8827    1.0175 H   0  0  0  0  0  0  0  0  0  0  0  0
   -2.5852    2.4620    0.1210 H   0  0  0  0  0  0  0  0  0  0  0  0
   -0.7955   -0.0946    1.8630 H   0  0  0  0  0  0  0  0  0  0  0  0
   -2.1150   -1.3408    1.5530 H   0  0  0  0  0  0  0  0  0  0  0  0
  1  2  1  0
  2  3  1  0
  3  4  2  0
  4  5  1  0
  5  6  1  0
  6  7  1  6
  6  8  1  0
  8  9  1  0
  9 10  1  0
 10 11  1  0
  5 12  2  0
 12  2  1  0
 11  6  1  0
  1 13  1  0
  1 14  1  0
  1 15  1  0
  7 16  1  0
  8 17  1  0
  8 18  1  0
  9 19  1  0
  9 20  1  0
 11 21  1  0
 11 22  1  0
M  END
$$$$

     RDKit          3D

 22 23  0  0  0  0  0  0  0  0999 V2000
    3.8991    0.0979    0.0794 C   0  0  0  0  0  0  0  0  0  0  0  0
    2.5125    0.4906   -0.0684 N   0  0  0  0  0  0  0  0  0  0  0  0
    2.0171    1.6943   -0.0322 N   0  0  0  0  0  0  0  0  0  0  0  0
    0.7050    1.6515   -0.2072 N   0  0  0  0  0  0  0  0  0  0  0  0
    0.3841    0.3564   -0.3574 C   0  0  0  0  0  0  0  0  0  0  0  0
   -0.9162   -0.3126   -0.5829 C   0  0  2  0  0  0  0  0  0  0  0  0
   -0.7885   -1.1695   -1.6583 O   0  0  0  0  0  0  0  0  0  0  0  0
   -2.0689    0.6394   -0.6875 C   0  0  0  0  0  0  0  0  0  0  0  0
   -2.9860    0.3032    0.4727 C   0  0  0  0  0  0  0  0  0  0  0  0
   -2.6576   -1.0093    0.7778 O   0  0  0  0  0  0  0  0  0  0  0  0
   -1.2654   -1.0934    0.6827 C   0  0  0  0  0  0  0  0  0  0  0  0
    1.5317   -0.3767   -0.2683 N   0  0  0  0  0  0  0  0  0  0  0  0
    4.5047    0.8600    0.5744 H   0  0  0  0  0  0  0  0  0  0  0  0
    4.3455   -0.0755   -0.9402 H   0  0  0  0  0  0  0  0  0  0  0  0
    3.9955   -0.8351    0.6952 H   0  0  0  0  0  0  0  0  0  0  0  0
   -0.1968   -1.9042   -1.3890 H   0  0  0  0  0  0  0  0  0  0  0  0
   -2.6578    0.4019   -1.6191 H   0  0  0  0  0  0  0  0  0  0  0  0
   -1.7934    1.6949   -0.7166 H   0  0  0  0  0  0  0  0  0  0  0  0
   -4.0489    0.3675    0.2000 H   0  0  0  0  0  0  0  0  0  0  0  0
   -2.7926    0.9236    1.3673 H   0  0  0  0  0  0  0  0  0  0  0  0
   -0.7914   -0.5730    1.5440 H   0  0  0  0  0  0  0  0  0  0  0  0
   -0.9318   -2.1319    0.6148 H   0  0  0  0  0  0  0  0  0  0  0  0
  1  2  1  0
  2  3  1  0
  3  4  2  0
  4  5  1  0
  5  6  1  0
  6  7  1  6
  6  8  1  0
  8  9  1  0
  9 10  1  0
 10 11  1  0
  5 12  2  0
 12  2  1  0
 11  6  1  0
  1 13  1  0
  1 14  1  0
  1 15  1  0
  7 16  1  0
  8 17  1  0
  8 18  1  0
  9 19  1  0
  9 20  1  0
 11 21  1  0
 11 22  1  0
M  END
$$$$

     RDKit          3D

 22 23  0  0  0  0  0  0  0  0999 V2000
    3.8831    0.1601    0.3076 C   0  0  0  0  0  0  0  0  0  0  0  0
    2.5382   -0.4450    0.0782 N   0  0  0  0  0  0  0  0  0  0  0  0
    2.1582   -1.6931    0.0981 N   0  0  0  0  0  0  0  0  0  0  0  0
    0.8336   -1.7653   -0.1787 N   0  0  0  0  0  0  0  0  0  0  0  0
    0.3783   -0.5113   -0.3709 C   0  0  0  0  0  0  0  0  0  0  0  0
   -0.9991   -0.0526   -0.6548 C   0  0  2  0  0  0  0  0  0  0  0  0
   -1.2113    0.2465   -1.9993 O   0  0  0  0  0  0  0  0  0  0  0  0
   -1.2275    1.1670    0.2564 C   0  0  0  0  0  0  0  0  0  0  0  0
   -2.4373    0.7747    1.0628 C   0  0  0  0  0  0  0  0  0  0  0  0
   -2.3661   -0.6085    1.1278 O   0  0  0  0  0  0  0  0  0  0  0  0
   -2.0717   -0.9581   -0.1950 C   0  0  0  0  0  0  0  0  0  0  0  0
    1.4554    0.2972   -0.2055 N   0  0  0  0  0  0  0  0  0  0  0  0
    4.4548   -0.5789    0.8777 H   0  0  0  0  0  0  0  0  0  0  0  0
    3.6699    1.1060    0.8640 H   0  0  0  0  0  0  0  0  0  0  0  0
    4.3354    0.4230   -0.6645 H   0  0  0  0  0  0  0  0  0  0  0  0
   -0.9802   -0.5930   -2.5021 H   0  0  0  0  0  0  0  0  0  0  0  0
   -1.3511    2.0547   -0.3663 H   0  0  0  0  0  0  0  0  0  0  0  0
   -0.3885    1.2883    0.9652 H   0  0  0  0  0  0  0  0  0  0  0  0
   -2.3949    1.1961    2.1007 H   0  0  0  0  0  0  0  0  0  0  0  0
   -3.3256    1.1466    0.5001 H   0  0  0  0  0  0  0  0  0  0  0  0
   -3.0182   -0.6226   -0.7553 H   0  0  0  0  0  0  0  0  0  0  0  0
   -1.9355   -2.0318   -0.3460 H   0  0  0  0  0  0  0  0  0  0  0  0
  1  2  1  0
  2  3  1  0
  3  4  2  0
  4  5  1  0
  5  6  1  0
  6  7  1  6
  6  8  1  0
  8  9  1  0
  9 10  1  0
 10 11  1  0
  5 12  2  0
 12  2  1  0
 11  6  1  0
  1 13  1  0
  1 14  1  0
  1 15  1  0
  7 16  1  0
  8 17  1  0
  8 18  1  0
  9 19  1  0
  9 20  1  0
 11 21  1  0
 11 22  1  0
M  END
$$$$

     RDKit          3D

 22 23  0  0  0  0  0  0  0  0999 V2000
    4.0327   -0.1571    0.0849 C   0  0  0  0  0  0  0  0  0  0  0  0
    2.6508   -0.3877   -0.2828 N   0  0  0  0  0  0  0  0  0  0  0  0
    2.2045   -1.4575   -0.9169 N   0  0  0  0  0  0  0  0  0  0  0  0
    0.9122   -1.3828   -1.1038 N   0  0  0  0  0  0  0  0  0  0  0  0
    0.4666   -0.2282   -0.5805 C   0  0  0  0  0  0  0  0  0  0  0  0
   -0.9114    0.2039   -0.6054 C   0  0  2  0  0  0  0  0  0  0  0  0
   -1.2075    1.1315   -1.5958 O   0  0  0  0  0  0  0  0  0  0  0  0
   -1.5100    0.6127    0.7230 C   0  0  0  0  0  0  0  0  0  0  0  0
   -2.9816    0.5995    0.2436 C   0  0  0  0  0  0  0  0  0  0  0  0
   -3.0626   -0.4115   -0.6827 O   0  0  0  0  0  0  0  0  0  0  0  0
   -1.8251   -1.0110   -0.8429 C   0  0  0  0  0  0  0  0  0  0  0  0
    1.5863    0.3623   -0.0791 N   0  0  0  0  0  0  0  0  0  0  0  0
    4.6943   -0.5545   -0.7229 H   0  0  0  0  0  0  0  0  0  0  0  0
    4.3237   -0.6666    1.0110 H   0  0  0  0  0  0  0  0  0  0  0  0
    4.2805    0.9350    0.1453 H   0  0  0  0  0  0  0  0  0  0  0  0
   -0.8971    2.0315   -1.2744 H   0  0  0  0  0  0  0  0  0  0  0  0
   -1.2283    1.6139    1.0577 H   0  0  0  0  0  0  0  0  0  0  0  0
   -1.4320   -0.1846    1.4513 H   0  0  0  0  0  0  0  0  0  0  0  0
   -3.1207    1.5762   -0.3086 H   0  0  0  0  0  0  0  0  0  0  0  0
   -3.6856    0.5475    1.0704 H   0  0  0  0  0  0  0  0  0  0  0  0
   -1.6350   -1.4717   -1.8060 H   0  0  0  0  0  0  0  0  0  0  0  0
   -1.6548   -1.7008    0.0294 H   0  0  0  0  0  0  0  0  0  0  0  0
  1  2  1  0
  2  3  1  0
  3  4  2  0
  4  5  1  0
  5  6  1  0
  6  7  1  6
  6  8  1  0
  8  9  1  0
  9 10  1  0
 10 11  1  0
  5 12  2  0
 12  2  1  0
 11  6  1  0
  1 13  1  0
  1 14  1  0
  1 15  1  0
  7 16  1  0
  8 17  1  0
  8 18  1  0
  9 19  1  0
  9 20  1  0
 11 21  1  0
 11 22  1  0
M  END
$$$$

     RDKit          3D

 22 23  0  0  0  0  0  0  0  0999 V2000
    3.7152    0.6470   -0.1844 C   0  0  0  0  0  0  0  0  0  0  0  0
    2.5289   -0.0785    0.1808 N   0  0  0  0  0  0  0  0  0  0  0  0
    2.3953   -1.1376    0.9435 N   0  0  0  0  0  0  0  0  0  0  0  0
    1.1255   -1.5103    1.0285 N   0  0  0  0  0  0  0  0  0  0  0  0
    0.4245   -0.6393    0.2810 C   0  0  0  0  0  0  0  0  0  0  0  0
   -1.0396   -0.6453    0.0635 C   0  0  2  0  0  0  0  0  0  0  0  0
   -1.4443   -1.8455   -0.5460 O   0  0  0  0  0  0  0  0  0  0  0  0
   -1.4637    0.5002   -0.8230 C   0  0  0  0  0  0  0  0  0  0  0  0
   -2.4734    1.2172    0.0319 C   0  0  0  0  0  0  0  0  0  0  0  0
   -2.1110    0.9624    1.3455 O   0  0  0  0  0  0  0  0  0  0  0  0
   -1.8077   -0.3965    1.3216 C   0  0  0  0  0  0  0  0  0  0  0  0
    1.3100    0.2405   -0.2366 N   0  0  0  0  0  0  0  0  0  0  0  0
    4.6240    0.0237   -0.0364 H   0  0  0  0  0  0  0  0  0  0  0  0
    3.8068    1.5466    0.4348 H   0  0  0  0  0  0  0  0  0  0  0  0
    3.6663    0.9203   -1.2677 H   0  0  0  0  0  0  0  0  0  0  0  0
   -0.8737   -2.6032   -0.2083 H   0  0  0  0  0  0  0  0  0  0  0  0
   -1.9014    0.1716   -1.7701 H   0  0  0  0  0  0  0  0  0  0  0  0
   -0.6081    1.1920   -1.0525 H   0  0  0  0  0  0  0  0  0  0  0  0
   -3.4758    0.8133   -0.1941 H   0  0  0  0  0  0  0  0  0  0  0  0
   -2.4166    2.2848   -0.2060 H   0  0  0  0  0  0  0  0  0  0  0  0
   -1.2230   -0.6656    2.2373 H   0  0  0  0  0  0  0  0  0  0  0  0
   -2.7582   -0.9978    1.2965 H   0  0  0  0  0  0  0  0  0  0  0  0
  1  2  1  0
  2  3  1  0
  3  4  2  0
  4  5  1  0
  5  6  1  0
  6  7  1  6
  6  8  1  0
  8  9  1  0
  9 10  1  0
 10 11  1  0
  5 12  2  0
 12  2  1  0
 11  6  1  0
  1 13  1  0
  1 14  1  0
  1 15  1  0
  7 16  1  0
  8 17  1  0
  8 18  1  0
  9 19  1  0
  9 20  1  0
 11 21  1  0
 11 22  1  0
M  END
$$$$
