
     RDKit          3D

 29 29  0  0  0  0  0  0  0  0999 V2000
    2.1646    1.8331   -0.9946 C   0  0  0  0  0  0  0  0  0  0  0  0
    1.2362    0.8350   -1.2162 O   0  0  0  0  0  0  0  0  0  0  0  0
    0.8911    0.1435   -0.0678 C   0  0  2  0  0  0  0  0  0  0  0  0
    1.3514   -1.2813   -0.1698 C   0  0  1  0  0  0  0  0  0  0  0  0
    2.7027   -1.3318    0.1653 O   0  0  0  0  0  0  0  0  0  0  0  0
    0.5899   -2.0968    0.8381 C   0  0  0  0  0  0  0  0  0  0  0  0
   -0.7597   -2.1168    0.6464 O   0  0  0  0  0  0  0  0  0  0  0  0
   -1.3464   -0.9820    0.1832 C   0  0  2  0  0  0  0  0  0  0  0  0
   -1.8450   -1.2094   -1.2305 C   0  0  0  0  0  0  0  0  0  0  0  0
   -2.4369    0.0046   -1.6387 O   0  0  0  0  0  0  0  0  0  0  0  0
   -0.5546    0.2769    0.3058 C   0  0  1  0  0  0  0  0  0  0  0  0
   -0.7181    0.7945    1.5905 O   0  0  0  0  0  0  0  0  0  0  0  0
   -1.3630    2.0172    1.5969 C   0  0  0  0  0  0  0  0  0  0  0  0
    3.1218    1.4315   -0.5748 H   0  0  0  0  0  0  0  0  0  0  0  0
    1.7749    2.6948   -0.4320 H   0  0  0  0  0  0  0  0  0  0  0  0
    2.4452    2.2338   -2.0060 H   0  0  0  0  0  0  0  0  0  0  0  0
    1.4905    0.6086    0.7644 H   0  0  0  0  0  0  0  0  0  0  0  0
    1.2205   -1.7332   -1.1567 H   0  0  0  0  0  0  0  0  0  0  0  0
    2.9207   -0.8819    1.0055 H   0  0  0  0  0  0  0  0  0  0  0  0
    0.8174   -1.7591    1.8775 H   0  0  0  0  0  0  0  0  0  0  0  0
    0.9678   -3.1390    0.7653 H   0  0  0  0  0  0  0  0  0  0  0  0
   -2.2871   -0.8363    0.7917 H   0  0  0  0  0  0  0  0  0  0  0  0
   -2.6500   -1.9571   -1.1869 H   0  0  0  0  0  0  0  0  0  0  0  0
   -1.0388   -1.4776   -1.9328 H   0  0  0  0  0  0  0  0  0  0  0  0
   -2.9405   -0.1054   -2.4776 H   0  0  0  0  0  0  0  0  0  0  0  0
   -1.0066    1.0201   -0.3929 H   0  0  0  0  0  0  0  0  0  0  0  0
   -2.3863    1.9000    1.1370 H   0  0  0  0  0  0  0  0  0  0  0  0
   -1.5584    2.2770    2.6581 H   0  0  0  0  0  0  0  0  0  0  0  0
   -0.8033    2.8372    1.1517 H   0  0  0  0  0  0  0  0  0  0  0  0
  1  2  1  0
  2  3  1  0
  3  4  1  0
  4  5  1  0
  4  6  1  0
  6  7  1  0
  7  8  1  0
  8  9  1  0
  9 10  1  0
  8 11  1  0
 11 12  1  0
 12 13  1  0
 11  3  1  0
  1 14  1  0
  1 15  1  0
  1 16  1  0
  3 17  1  1
  4 18  1  6
  5 19  1  0
  6 20  1  0
  6 21  1  0
  8 22  1  1
  9 23  1  0
  9 24  1  0
 10 25  1  0
 11 26  1  6
 13 27  1  0
 13 28  1  0
 13 29  1  0
M  END
$$$$

     RDKit          3D

 29 29  0  0  0  0  0  0  0  0999 V2000
   -2.2445    1.3916    1.7789 C   0  0  0  0  0  0  0  0  0  0  0  0
   -1.4844    0.2568    1.4380 O   0  0  0  0  0  0  0  0  0  0  0  0
   -1.0628    0.3239    0.1210 C   0  0  2  0  0  0  0  0  0  0  0  0
   -1.6120   -0.7985   -0.7274 C   0  0  1  0  0  0  0  0  0  0  0  0
   -1.4388   -0.4827   -2.0629 O   0  0  0  0  0  0  0  0  0  0  0  0
   -0.9814   -2.1299   -0.4136 C   0  0  0  0  0  0  0  0  0  0  0  0
    0.0525   -1.9319    0.4928 O   0  0  0  0  0  0  0  0  0  0  0  0
    1.0112   -1.0387   -0.0095 C   0  0  2  0  0  0  0  0  0  0  0  0
    2.2295   -1.1955    0.8792 C   0  0  0  0  0  0  0  0  0  0  0  0
    3.2745   -0.3767    0.5148 O   0  0  0  0  0  0  0  0  0  0  0  0
    0.4664    0.3710    0.0320 C   0  0  1  0  0  0  0  0  0  0  0  0
    0.7555    1.0274   -1.1649 O   0  0  0  0  0  0  0  0  0  0  0  0
    1.4719    2.1974   -0.9700 C   0  0  0  0  0  0  0  0  0  0  0  0
   -3.1345    1.4494    1.1208 H   0  0  0  0  0  0  0  0  0  0  0  0
   -2.6003    1.3234    2.8072 H   0  0  0  0  0  0  0  0  0  0  0  0
   -1.6268    2.3015    1.5922 H   0  0  0  0  0  0  0  0  0  0  0  0
   -1.4454    1.2693   -0.3131 H   0  0  0  0  0  0  0  0  0  0  0  0
   -2.7008   -0.8479   -0.5244 H   0  0  0  0  0  0  0  0  0  0  0  0
   -1.6470   -1.2734   -2.6073 H   0  0  0  0  0  0  0  0  0  0  0  0
   -1.7196   -2.7919    0.0837 H   0  0  0  0  0  0  0  0  0  0  0  0
   -0.6211   -2.6503   -1.3319 H   0  0  0  0  0  0  0  0  0  0  0  0
    1.2796   -1.2903   -1.0593 H   0  0  0  0  0  0  0  0  0  0  0  0
    2.5807   -2.2528    0.7215 H   0  0  0  0  0  0  0  0  0  0  0  0
    1.9497   -1.0312    1.9216 H   0  0  0  0  0  0  0  0  0  0  0  0
    3.4642   -0.4034   -0.4469 H   0  0  0  0  0  0  0  0  0  0  0  0
    0.8714    0.9213    0.9097 H   0  0  0  0  0  0  0  0  0  0  0  0
    0.8977    2.9248   -0.3258 H   0  0  0  0  0  0  0  0  0  0  0  0
    1.5582    2.6923   -1.9576 H   0  0  0  0  0  0  0  0  0  0  0  0
    2.4564    2.0451   -0.4989 H   0  0  0  0  0  0  0  0  0  0  0  0
  1  2  1  0
  2  3  1  0
  3  4  1  0
  4  5  1  0
  4  6  1  0
  6  7  1  0
  7  8  1  0
  8  9  1  0
  9 10  1  0
  8 11  1  0
 11 12  1  0
 12 13  1  0
 11  3  1  0
  1 14  1  0
  1 15  1  0
  1 16  1  0
  3 17  1  6
  4 18  1  6
  5 19  1  0
  6 20  1  0
  6 21  1  0
  8 22  1  6
  9 23  1  0
  9 24  1  0
 10 25  1  0
 11 26  1  1
 13 27  1  0
 13 28  1  0
 13 29  1  0
M  END
$$$$

     RDKit          3D

 29 29  0  0  0  0  0  0  0  0999 V2000
    1.6817   -2.4696    0.8257 C   0  0  0  0  0  0  0  0  0  0  0  0
    1.2764   -1.1354    0.8768 O   0  0  0  0  0  0  0  0  0  0  0  0
    0.7871   -0.6789   -0.3289 C   0  0  2  0  0  0  0  0  0  0  0  0
    1.6775    0.3958   -0.9183 C   0  0  1  0  0  0  0  0  0  0  0  0
    1.4191    0.5776   -2.2750 O   0  0  0  0  0  0  0  0  0  0  0  0
    1.3177    1.6903   -0.2147 C   0  0  0  0  0  0  0  0  0  0  0  0
    0.0536    2.0516   -0.5807 O   0  0  0  0  0  0  0  0  0  0  0  0
   -0.8862    1.2033   -0.0872 C   0  0  2  0  0  0  0  0  0  0  0  0
   -1.1880    1.5643    1.3746 C   0  0  0  0  0  0  0  0  0  0  0  0
   -1.6575    2.8539    1.5018 O   0  0  0  0  0  0  0  0  0  0  0  0
   -0.6301   -0.2540   -0.2014 C   0  0  1  0  0  0  0  0  0  0  0  0
   -1.3825   -0.7328   -1.2721 O   0  0  0  0  0  0  0  0  0  0  0  0
   -2.3532   -1.6352   -0.8661 C   0  0  0  0  0  0  0  0  0  0  0  0
    2.0700   -2.8331    1.7812 H   0  0  0  0  0  0  0  0  0  0  0  0
    0.8303   -3.1223    0.5006 H   0  0  0  0  0  0  0  0  0  0  0  0
    2.5188   -2.5143    0.0947 H   0  0  0  0  0  0  0  0  0  0  0  0
    0.8548   -1.5479   -1.0473 H   0  0  0  0  0  0  0  0  0  0  0  0
    2.7439    0.1579   -0.7601 H   0  0  0  0  0  0  0  0  0  0  0  0
    1.4692    1.5357   -2.4885 H   0  0  0  0  0  0  0  0  0  0  0  0
    1.3766    1.5732    0.8760 H   0  0  0  0  0  0  0  0  0  0  0  0
    2.0475    2.4910   -0.4816 H   0  0  0  0  0  0  0  0  0  0  0  0
   -1.8574    1.4900   -0.6139 H   0  0  0  0  0  0  0  0  0  0  0  0
   -1.9641    0.8412    1.7264 H   0  0  0  0  0  0  0  0  0  0  0  0
   -0.2925    1.3705    1.9792 H   0  0  0  0  0  0  0  0  0  0  0  0
   -1.0282    3.4617    1.9640 H   0  0  0  0  0  0  0  0  0  0  0  0
   -1.0449   -0.7586    0.7198 H   0  0  0  0  0  0  0  0  0  0  0  0
   -1.8408   -2.4857   -0.3771 H   0  0  0  0  0  0  0  0  0  0  0  0
   -3.0322   -1.9384   -1.6562 H   0  0  0  0  0  0  0  0  0  0  0  0
   -2.9669   -1.1520   -0.0519 H   0  0  0  0  0  0  0  0  0  0  0  0
  1  2  1  0
  2  3  1  0
  3  4  1  0
  4  5  1  0
  4  6  1  0
  6  7  1  0
  7  8  1  0
  8  9  1  0
  9 10  1  0
  8 11  1  0
 11 12  1  0
 12 13  1  0
 11  3  1  0
  1 14  1  0
  1 15  1  0
  1 16  1  0
  3 17  1  6
  4 18  1  6
  5 19  1  0
  6 20  1  0
  6 21  1  0
  8 22  1  6
  9 23  1  0
  9 24  1  0
 10 25  1  0
 11 26  1  1
 13 27  1  0
 13 28  1  0
 13 29  1  0
M  END
$$$$

     RDKit          3D

 29 29  0  0  0  0  0  0  0  0999 V2000
   -2.1885   -1.8603   -1.2003 C   0  0  0  0  0  0  0  0  0  0  0  0
   -1.3282   -0.7719   -1.2552 O   0  0  0  0  0  0  0  0  0  0  0  0
   -1.1279   -0.1804   -0.0242 C   0  0  2  0  0  0  0  0  0  0  0  0
   -1.5836    1.2578   -0.0174 C   0  0  1  0  0  0  0  0  0  0  0  0
   -2.0501    1.6466    1.2446 O   0  0  0  0  0  0  0  0  0  0  0  0
   -0.5203    2.2152   -0.4573 C   0  0  0  0  0  0  0  0  0  0  0  0
    0.3845    1.4912   -1.2584 O   0  0  0  0  0  0  0  0  0  0  0  0
    1.1707    0.7671   -0.3393 C   0  0  2  0  0  0  0  0  0  0  0  0
    2.3562    0.2464   -1.0982 C   0  0  0  0  0  0  0  0  0  0  0  0
    3.2081   -0.4887   -0.2886 O   0  0  0  0  0  0  0  0  0  0  0  0
    0.3528   -0.3027    0.3052 C   0  0  1  0  0  0  0  0  0  0  0  0
    0.4803   -0.1755    1.6841 O   0  0  0  0  0  0  0  0  0  0  0  0
    1.0082   -1.3144    2.2744 C   0  0  0  0  0  0  0  0  0  0  0  0
   -1.7824   -2.6407   -0.5240 H   0  0  0  0  0  0  0  0  0  0  0  0
   -2.2332   -2.2974   -2.2120 H   0  0  0  0  0  0  0  0  0  0  0  0
   -3.2100   -1.5769   -0.8688 H   0  0  0  0  0  0  0  0  0  0  0  0
   -1.7049   -0.7063    0.7631 H   0  0  0  0  0  0  0  0  0  0  0  0
   -2.4211    1.3314   -0.7583 H   0  0  0  0  0  0  0  0  0  0  0  0
   -2.5267    2.5137    1.1091 H   0  0  0  0  0  0  0  0  0  0  0  0
    0.0304    2.5500    0.4599 H   0  0  0  0  0  0  0  0  0  0  0  0
   -0.9062    3.0782   -1.0186 H   0  0  0  0  0  0  0  0  0  0  0  0
    1.5519    1.5303    0.3859 H   0  0  0  0  0  0  0  0  0  0  0  0
    2.0615   -0.3684   -1.9768 H   0  0  0  0  0  0  0  0  0  0  0  0
    2.8870    1.1412   -1.5172 H   0  0  0  0  0  0  0  0  0  0  0  0
    3.9089   -0.9097   -0.8260 H   0  0  0  0  0  0  0  0  0  0  0  0
    0.7052   -1.3007   -0.0333 H   0  0  0  0  0  0  0  0  0  0  0  0
    1.0650   -1.1015    3.3703 H   0  0  0  0  0  0  0  0  0  0  0  0
    2.0240   -1.5567    1.9518 H   0  0  0  0  0  0  0  0  0  0  0  0
    0.3883   -2.2168    2.1253 H   0  0  0  0  0  0  0  0  0  0  0  0
  1  2  1  0
  2  3  1  0
  3  4  1  0
  4  5  1  0
  4  6  1  0
  6  7  1  0
  7  8  1  0
  8  9  1  0
  9 10  1  0
  8 11  1  0
 11 12  1  0
 12 13  1  0
 11  3  1  0
  1 14  1  0
  1 15  1  0
  1 16  1  0
  3 17  1  1
  4 18  1  6
  5 19  1  0
  6 20  1  0
  6 21  1  0
  8 22  1  1
  9 23  1  0
  9 24  1  0
 10 25  1  0
 11 26  1  6
 13 27  1  0
 13 28  1  0
 13 29  1  0
M  END
$$$$

     RDKit          3D

 29 29  0  0  0  0  0  0  0  0999 V2000
    2.8693    0.5985    1.0823 C   0  0  0  0  0  0  0  0  0  0  0  0
    2.0906    0.8738   -0.0651 O   0  0  0  0  0  0  0  0  0  0  0  0
    1.0873   -0.0492   -0.1053 C   0  0  2  0  0  0  0  0  0  0  0  0
    1.0916   -0.8916   -1.3701 C   0  0  1  0  0  0  0  0  0  0  0  0
    2.2628   -1.6559   -1.3270 O   0  0  0  0  0  0  0  0  0  0  0  0
   -0.0752   -1.8105   -1.4027 C   0  0  0  0  0  0  0  0  0  0  0  0
   -1.2782   -1.2628   -1.0769 O   0  0  0  0  0  0  0  0  0  0  0  0
   -1.2418   -0.5908    0.1454 C   0  0  2  0  0  0  0  0  0  0  0  0
   -2.6094   -0.1603    0.5892 C   0  0  0  0  0  0  0  0  0  0  0  0
   -3.4544   -1.2552    0.7427 O   0  0  0  0  0  0  0  0  0  0  0  0
   -0.3079    0.5831   -0.0537 C   0  0  1  0  0  0  0  0  0  0  0  0
   -0.4192    1.5394    0.9144 O   0  0  0  0  0  0  0  0  0  0  0  0
   -0.7095    2.7601    0.2752 C   0  0  0  0  0  0  0  0  0  0  0  0
    2.2630    0.6669    2.0028 H   0  0  0  0  0  0  0  0  0  0  0  0
    3.7234    1.2757    1.1747 H   0  0  0  0  0  0  0  0  0  0  0  0
    3.2098   -0.4589    1.0142 H   0  0  0  0  0  0  0  0  0  0  0  0
    1.1179   -0.7721    0.7412 H   0  0  0  0  0  0  0  0  0  0  0  0
    1.1811   -0.2537   -2.2794 H   0  0  0  0  0  0  0  0  0  0  0  0
    2.0476   -2.5337   -0.9551 H   0  0  0  0  0  0  0  0  0  0  0  0
   -0.1612   -2.2031   -2.4582 H   0  0  0  0  0  0  0  0  0  0  0  0
    0.1230   -2.7203   -0.7829 H   0  0  0  0  0  0  0  0  0  0  0  0
   -0.8447   -1.3053    0.8938 H   0  0  0  0  0  0  0  0  0  0  0  0
   -2.4865    0.3139    1.5967 H   0  0  0  0  0  0  0  0  0  0  0  0
   -3.0814    0.5374   -0.1122 H   0  0  0  0  0  0  0  0  0  0  0  0
   -3.5500   -1.5089    1.7113 H   0  0  0  0  0  0  0  0  0  0  0  0
   -0.4697    0.9892   -1.0919 H   0  0  0  0  0  0  0  0  0  0  0  0
   -0.8161    3.5874    0.9824 H   0  0  0  0  0  0  0  0  0  0  0  0
    0.0905    3.0100   -0.4764 H   0  0  0  0  0  0  0  0  0  0  0  0
   -1.6528    2.6968   -0.3092 H   0  0  0  0  0  0  0  0  0  0  0  0
  1  2  1  0
  2  3  1  0
  3  4  1  0
  4  5  1  0
  4  6  1  0
  6  7  1  0
  7  8  1  0
  8  9  1  0
  9 10  1  0
  8 11  1  0
 11 12  1  0
 12 13  1  0
 11  3  1  0
  1 14  1  0
  1 15  1  0
  1 16  1  0
  3 17  1  1
  4 18  1  6
  5 19  1  0
  6 20  1  0
  6 21  1  0
  8 22  1  1
  9 23  1  0
  9 24  1  0
 10 25  1  0
 11 26  1  6
 13 27  1  0
 13 28  1  0
 13 29  1  0
M  END
$$$$

     RDKit          3D

 29 29  0  0  0  0  0  0  0  0999 V2000
    2.4292    1.5875   -1.0140 C   0  0  0  0  0  0  0  0  0  0  0  0
    1.6232    0.4771   -0.9892 O   0  0  0  0  0  0  0  0  0  0  0  0
    1.0731    0.1553    0.2166 C   0  0  2  0  0  0  0  0  0  0  0  0
    1.4898   -1.1683    0.7736 C   0  0  1  0  0  0  0  0  0  0  0  0
    2.0413   -1.0691    2.0597 O   0  0  0  0  0  0  0  0  0  0  0  0
    0.3861   -2.1738    0.8625 C   0  0  0  0  0  0  0  0  0  0  0  0
   -0.4147   -2.0419   -0.2560 O   0  0  0  0  0  0  0  0  0  0  0  0
   -1.1815   -0.9070   -0.1689 C   0  0  2  0  0  0  0  0  0  0  0  0
   -1.9356   -0.7985   -1.5018 C   0  0  0  0  0  0  0  0  0  0  0  0
   -2.7346   -1.8885   -1.7249 O   0  0  0  0  0  0  0  0  0  0  0  0
   -0.4250    0.3418    0.1374 C   0  0  1  0  0  0  0  0  0  0  0  0
   -0.9306    0.9150    1.3047 O   0  0  0  0  0  0  0  0  0  0  0  0
   -1.5188    2.1563    1.0695 C   0  0  0  0  0  0  0  0  0  0  0  0
    2.7883    1.7026   -2.0599 H   0  0  0  0  0  0  0  0  0  0  0  0
    1.8759    2.4906   -0.7608 H   0  0  0  0  0  0  0  0  0  0  0  0
    3.3639    1.4581   -0.4048 H   0  0  0  0  0  0  0  0  0  0  0  0
    1.4355    0.9253    0.9430 H   0  0  0  0  0  0  0  0  0  0  0  0
    2.3010   -1.6352    0.1501 H   0  0  0  0  0  0  0  0  0  0  0  0
    2.1079   -0.1269    2.3128 H   0  0  0  0  0  0  0  0  0  0  0  0
   -0.1563   -2.0932    1.8130 H   0  0  0  0  0  0  0  0  0  0  0  0
    0.8204   -3.2090    0.8349 H   0  0  0  0  0  0  0  0  0  0  0  0
   -1.9745   -1.0825    0.5934 H   0  0  0  0  0  0  0  0  0  0  0  0
   -1.1524   -0.6559   -2.2740 H   0  0  0  0  0  0  0  0  0  0  0  0
   -2.5550    0.1256   -1.4535 H   0  0  0  0  0  0  0  0  0  0  0  0
   -2.9115   -1.9317   -2.7035 H   0  0  0  0  0  0  0  0  0  0  0  0
   -0.6450    1.0676   -0.6756 H   0  0  0  0  0  0  0  0  0  0  0  0
   -1.9079    2.5870    1.9964 H   0  0  0  0  0  0  0  0  0  0  0  0
   -2.4094    1.9482    0.4161 H   0  0  0  0  0  0  0  0  0  0  0  0
   -0.8829    2.8437    0.5032 H   0  0  0  0  0  0  0  0  0  0  0  0
  1  2  1  0
  2  3  1  0
  3  4  1  0
  4  5  1  0
  4  6  1  0
  6  7  1  0
  7  8  1  0
  8  9  1  0
  9 10  1  0
  8 11  1  0
 11 12  1  0
 12 13  1  0
 11  3  1  0
  1 14  1  0
  1 15  1  0
  1 16  1  0
  3 17  1  1
  4 18  1  6
  5 19  1  0
  6 20  1  0
  6 21  1  0
  8 22  1  1
  9 23  1  0
  9 24  1  0
 10 25  1  0
 11 26  1  6
 13 27  1  0
 13 28  1  0
 13 29  1  0
M  END
$$$$

     RDKit          3D

 29 29  0  0  0  0  0  0  0  0999 V2000
   -2.9436    1.0526    1.2459 C   0  0  0  0  0  0  0  0  0  0  0  0
   -1.9289    0.1290    1.1640 O   0  0  0  0  0  0  0  0  0  0  0  0
   -1.1603    0.1756    0.0404 C   0  0  2  0  0  0  0  0  0  0  0  0
   -1.3651   -1.0824   -0.7532 C   0  0  1  0  0  0  0  0  0  0  0  0
   -1.2690   -0.8035   -2.1279 O   0  0  0  0  0  0  0  0  0  0  0  0
   -0.5241   -2.2286   -0.3466 C   0  0  0  0  0  0  0  0  0  0  0  0
    0.6838   -1.8897    0.2471 O   0  0  0  0  0  0  0  0  0  0  0  0
    1.1145   -0.6691   -0.2468 C   0  0  2  0  0  0  0  0  0  0  0  0
    2.5916   -0.4778   -0.0357 C   0  0  0  0  0  0  0  0  0  0  0  0
    3.2340   -1.5236   -0.7179 O   0  0  0  0  0  0  0  0  0  0  0  0
    0.2916    0.4855    0.2871 C   0  0  1  0  0  0  0  0  0  0  0  0
    0.7197    1.6131   -0.4128 O   0  0  0  0  0  0  0  0  0  0  0  0
    1.2876    2.5684    0.4102 C   0  0  0  0  0  0  0  0  0  0  0  0
   -3.6864    0.9655    0.4091 H   0  0  0  0  0  0  0  0  0  0  0  0
   -3.5261    0.8227    2.1681 H   0  0  0  0  0  0  0  0  0  0  0  0
   -2.6358    2.0904    1.3083 H   0  0  0  0  0  0  0  0  0  0  0  0
   -1.5599    1.0065   -0.5929 H   0  0  0  0  0  0  0  0  0  0  0  0
   -2.4444   -1.3782   -0.6006 H   0  0  0  0  0  0  0  0  0  0  0  0
   -1.0737   -1.6339   -2.6007 H   0  0  0  0  0  0  0  0  0  0  0  0
   -1.0659   -2.9815    0.2918 H   0  0  0  0  0  0  0  0  0  0  0  0
   -0.2512   -2.8076   -1.2783 H   0  0  0  0  0  0  0  0  0  0  0  0
    0.9339   -0.6868   -1.3535 H   0  0  0  0  0  0  0  0  0  0  0  0
    2.8704   -0.4287    1.0200 H   0  0  0  0  0  0  0  0  0  0  0  0
    2.9112    0.4533   -0.5671 H   0  0  0  0  0  0  0  0  0  0  0  0
    3.8749   -1.9862   -0.1143 H   0  0  0  0  0  0  0  0  0  0  0  0
    0.5210    0.6403    1.3573 H   0  0  0  0  0  0  0  0  0  0  0  0
    2.1730    2.1647    0.9430 H   0  0  0  0  0  0  0  0  0  0  0  0
    1.6723    3.3754   -0.2497 H   0  0  0  0  0  0  0  0  0  0  0  0
    0.5548    3.0346    1.1057 H   0  0  0  0  0  0  0  0  0  0  0  0
  1  2  1  0
  2  3  1  0
  3  4  1  0
  4  5  1  0
  4  6  1  0
  6  7  1  0
  7  8  1  0
  8  9  1  0
  9 10  1  0
  8 11  1  0
 11 12  1  0
 12 13  1  0
 11  3  1  0
  1 14  1  0
  1 15  1  0
  1 16  1  0
  3 17  1  6
  4 18  1  6
  5 19  1  0
  6 20  1  0
  6 21  1  0
  8 22  1  6
  9 23  1  0
  9 24  1  0
 10 25  1  0
 11 26  1  1
 13 27  1  0
 13 28  1  0
 13 29  1  0
M  END
$$$$

     RDKit          3D

 29 29  0  0  0  0  0  0  0  0999 V2000
   -1.6728   -1.0836    2.3755 C   0  0  0  0  0  0  0  0  0  0  0  0
   -0.8644   -1.2221    1.2622 O   0  0  0  0  0  0  0  0  0  0  0  0
   -1.0400   -0.2279    0.3211 C   0  0  2  0  0  0  0  0  0  0  0  0
   -1.5215   -0.8229   -0.9877 C   0  0  1  0  0  0  0  0  0  0  0  0
   -2.1027    0.1583   -1.8041 O   0  0  0  0  0  0  0  0  0  0  0  0
   -0.4410   -1.5422   -1.7315 C   0  0  0  0  0  0  0  0  0  0  0  0
    0.7159   -1.5327   -0.9540 O   0  0  0  0  0  0  0  0  0  0  0  0
    1.1423   -0.1896   -0.8369 C   0  0  2  0  0  0  0  0  0  0  0  0
    2.5696   -0.2550   -0.3212 C   0  0  0  0  0  0  0  0  0  0  0  0
    2.5621   -0.9060    0.9134 O   0  0  0  0  0  0  0  0  0  0  0  0
    0.2440    0.5695    0.1005 C   0  0  1  0  0  0  0  0  0  0  0  0
   -0.0832    1.7795   -0.4711 O   0  0  0  0  0  0  0  0  0  0  0  0
    0.2425    2.8666    0.3257 C   0  0  0  0  0  0  0  0  0  0  0  0
   -1.4475   -0.1234    2.8582 H   0  0  0  0  0  0  0  0  0  0  0  0
   -1.3691   -1.8920    3.0895 H   0  0  0  0  0  0  0  0  0  0  0  0
   -2.7506   -1.1632    2.1533 H   0  0  0  0  0  0  0  0  0  0  0  0
   -1.7992    0.4801    0.6575 H   0  0  0  0  0  0  0  0  0  0  0  0
   -2.3107   -1.5619   -0.7384 H   0  0  0  0  0  0  0  0  0  0  0  0
   -1.4938    0.4064   -2.5402 H   0  0  0  0  0  0  0  0  0  0  0  0
   -0.7019   -2.5925   -1.9821 H   0  0  0  0  0  0  0  0  0  0  0  0
   -0.2084   -1.0034   -2.6878 H   0  0  0  0  0  0  0  0  0  0  0  0
    1.1810    0.2456   -1.8508 H   0  0  0  0  0  0  0  0  0  0  0  0
    3.1649   -0.8856   -1.0045 H   0  0  0  0  0  0  0  0  0  0  0  0
    3.0498    0.7319   -0.2610 H   0  0  0  0  0  0  0  0  0  0  0  0
    3.2928   -0.5468    1.5061 H   0  0  0  0  0  0  0  0  0  0  0  0
    0.7073    0.7127    1.0942 H   0  0  0  0  0  0  0  0  0  0  0  0
    1.3129    2.9415    0.5606 H   0  0  0  0  0  0  0  0  0  0  0  0
   -0.0008    3.7839   -0.2785 H   0  0  0  0  0  0  0  0  0  0  0  0
   -0.3774    2.8750    1.2319 H   0  0  0  0  0  0  0  0  0  0  0  0
  1  2  1  0
  2  3  1  0
  3  4  1  0
  4  5  1  0
  4  6  1  0
  6  7  1  0
  7  8  1  0
  8  9  1  0
  9 10  1  0
  8 11  1  0
 11 12  1  0
 12 13  1  0
 11  3  1  0
  1 14  1  0
  1 15  1  0
  1 16  1  0
  3 17  1  1
  4 18  1  1
  5 19  1  0
  6 20  1  0
  6 21  1  0
  8 22  1  6
  9 23  1  0
  9 24  1  0
 10 25  1  0
 11 26  1  1
 13 27  1  0
 13 28  1  0
 13 29  1  0
M  END
$$$$
