
     RDKit          3D

 24 25  0  0  0  0  0  0  0  0999 V2000
   -2.0652    0.0574   -1.3292 C   0  0  0  0  0  0  0  0  0  0  0  0
   -1.7740   -0.9055   -0.2969 N   0  0  0  0  0  0  0  0  0  0  0  0
   -2.4444   -2.0658   -0.0831 C   0  0  0  0  0  0  0  0  0  0  0  0
   -1.8650   -2.6641    0.9705 N   0  0  0  0  0  0  0  0  0  0  0  0
   -0.8739   -1.9091    1.3970 N   0  0  0  0  0  0  0  0  0  0  0  0
   -0.8016   -0.7970    0.6103 C   0  0  0  0  0  0  0  0  0  0  0  0
    0.2163    0.2574    0.8206 C   0  0  2  0  0  0  0  0  0  0  0  0
   -0.3943    1.5646    0.6554 N   0  0  0  0  0  0  0  0  0  0  0  0
    0.5376    2.5766    0.8470 N   0  0  0  0  0  0  0  0  0  0  0  0
    1.3825    0.0391   -0.0590 C   0  0  0  0  0  0  0  0  0  0  0  0
    2.5715   -0.5340    0.3414 C   0  0  0  0  0  0  0  0  0  0  0  0
    3.4253   -0.5864   -0.6910 N   0  0  0  0  0  0  0  0  0  0  0  0
    2.7712   -0.0541   -1.7088 N   0  0  0  0  0  0  0  0  0  0  0  0
    1.5711    0.3199   -1.3614 N   0  0  0  0  0  0  0  0  0  0  0  0
   -2.6395   -0.4526   -2.1240 H   0  0  0  0  0  0  0  0  0  0  0  0
   -2.7245    0.8528   -0.8795 H   0  0  0  0  0  0  0  0  0  0  0  0
   -1.1712    0.4994   -1.7646 H   0  0  0  0  0  0  0  0  0  0  0  0
   -3.2862   -2.3946   -0.6870 H   0  0  0  0  0  0  0  0  0  0  0  0
    0.5878    0.2093    1.8805 H   0  0  0  0  0  0  0  0  0  0  0  0
   -1.1928    1.5966    1.3280 H   0  0  0  0  0  0  0  0  0  0  0  0
    0.1875    3.2708    1.5280 H   0  0  0  0  0  0  0  0  0  0  0  0
    0.8045    2.9806   -0.0726 H   0  0  0  0  0  0  0  0  0  0  0  0
    2.7815   -0.8913    1.3528 H   0  0  0  0  0  0  0  0  0  0  0  0
    4.3959   -0.9699   -0.6744 H   0  0  0  0  0  0  0  0  0  0  0  0
  1  2  1  0
  2  3  1  0
  3  4  2  0
  4  5  1  0
  5  6  2  0
  6  7  1  0
  7  8  1  0
  8  9  1  0
  7 10  1  0
 10 11  2  0
 11 12  1  0
 12 13  1  0
 13 14  2  0
  6  2  1  0
 14 10  1  0
  1 15  1  0
  1 16  1  0
  1 17  1  0
  3 18  1  0
  7 19  1  1
  8 20  1  0
  9 21  1  0
  9 22  1  0
 11 23  1  0
 12 24  1  0
M  END
$$$$

     RDKit          3D

 24 25  0  0  0  0  0  0  0  0999 V2000
   -2.3709   -1.0445    1.0011 C   0  0  0  0  0  0  0  0  0  0  0  0
   -1.9483   -0.6079   -0.3249 N   0  0  0  0  0  0  0  0  0  0  0  0
   -2.5864   -0.8949   -1.4826 C   0  0  0  0  0  0  0  0  0  0  0  0
   -1.9277   -0.3379   -2.5009 N   0  0  0  0  0  0  0  0  0  0  0  0
   -0.8970    0.2843   -1.9772 N   0  0  0  0  0  0  0  0  0  0  0  0
   -0.8752    0.1412   -0.6404 C   0  0  0  0  0  0  0  0  0  0  0  0
    0.1333    0.6999    0.2971 C   0  0  2  0  0  0  0  0  0  0  0  0
    0.3959    2.0536   -0.0389 N   0  0  0  0  0  0  0  0  0  0  0  0
    1.2954    2.7256    0.7138 N   0  0  0  0  0  0  0  0  0  0  0  0
    1.4125   -0.0566    0.2366 C   0  0  0  0  0  0  0  0  0  0  0  0
    1.6734   -1.2864   -0.3273 C   0  0  0  0  0  0  0  0  0  0  0  0
    2.9816   -1.5385   -0.1217 N   0  0  0  0  0  0  0  0  0  0  0  0
    3.5341   -0.5305    0.5367 N   0  0  0  0  0  0  0  0  0  0  0  0
    2.5669    0.3705    0.7512 N   0  0  0  0  0  0  0  0  0  0  0  0
   -3.4336   -1.2958    0.9643 H   0  0  0  0  0  0  0  0  0  0  0  0
   -2.2321   -0.2587    1.7657 H   0  0  0  0  0  0  0  0  0  0  0  0
   -1.8276   -1.9915    1.2781 H   0  0  0  0  0  0  0  0  0  0  0  0
   -3.5007   -1.4874   -1.6022 H   0  0  0  0  0  0  0  0  0  0  0  0
   -0.2253    0.6533    1.3380 H   0  0  0  0  0  0  0  0  0  0  0  0
    0.2990    2.3115   -1.0267 H   0  0  0  0  0  0  0  0  0  0  0  0
    2.1182    3.1184    0.2366 H   0  0  0  0  0  0  0  0  0  0  0  0
    0.9602    3.2449    1.5267 H   0  0  0  0  0  0  0  0  0  0  0  0
    0.9391   -1.8936   -0.8266 H   0  0  0  0  0  0  0  0  0  0  0  0
    3.5152   -2.3792   -0.4162 H   0  0  0  0  0  0  0  0  0  0  0  0
  1  2  1  0
  2  3  1  0
  3  4  2  0
  4  5  1  0
  5  6  2  0
  6  7  1  0
  7  8  1  0
  8  9  1  0
  7 10  1  0
 10 11  2  0
 11 12  1  0
 12 13  1  0
 13 14  2  0
  6  2  1  0
 14 10  1  0
  1 15  1  0
  1 16  1  0
  1 17  1  0
  3 18  1  0
  7 19  1  1
  8 20  1  0
  9 21  1  0
  9 22  1  0
 11 23  1  0
 12 24  1  0
M  END
$$$$

     RDKit          3D

 24 25  0  0  0  0  0  0  0  0999 V2000
   -2.3289    1.4192   -0.7256 C   0  0  0  0  0  0  0  0  0  0  0  0
   -2.0556    0.4930    0.3519 N   0  0  0  0  0  0  0  0  0  0  0  0
   -2.8056    0.2412    1.4409 C   0  0  0  0  0  0  0  0  0  0  0  0
   -2.1542   -0.6921    2.1635 N   0  0  0  0  0  0  0  0  0  0  0  0
   -1.0238   -1.0216    1.5488 N   0  0  0  0  0  0  0  0  0  0  0  0
   -0.9642   -0.2900    0.4318 C   0  0  0  0  0  0  0  0  0  0  0  0
    0.1313   -0.3129   -0.5935 C   0  0  2  0  0  0  0  0  0  0  0  0
    0.5120   -1.6766   -0.9102 N   0  0  0  0  0  0  0  0  0  0  0  0
    0.9695   -2.3832    0.1737 N   0  0  0  0  0  0  0  0  0  0  0  0
    1.3027    0.4747   -0.1814 C   0  0  0  0  0  0  0  0  0  0  0  0
    2.2967    0.0934    0.6932 C   0  0  0  0  0  0  0  0  0  0  0  0
    3.1937    1.1149    0.7994 N   0  0  0  0  0  0  0  0  0  0  0  0
    2.7579    2.0782    0.0180 N   0  0  0  0  0  0  0  0  0  0  0  0
    1.6475    1.7338   -0.5738 N   0  0  0  0  0  0  0  0  0  0  0  0
   -1.6361    2.2906   -0.7140 H   0  0  0  0  0  0  0  0  0  0  0  0
   -3.3556    1.8355   -0.6224 H   0  0  0  0  0  0  0  0  0  0  0  0
   -2.2569    0.9477   -1.7250 H   0  0  0  0  0  0  0  0  0  0  0  0
   -3.7626    0.7258    1.6633 H   0  0  0  0  0  0  0  0  0  0  0  0
   -0.2394    0.1274   -1.5591 H   0  0  0  0  0  0  0  0  0  0  0  0
    1.1391   -1.6732   -1.7201 H   0  0  0  0  0  0  0  0  0  0  0  0
    0.2636   -3.0092    0.6122 H   0  0  0  0  0  0  0  0  0  0  0  0
    1.8955   -2.8373    0.0395 H   0  0  0  0  0  0  0  0  0  0  0  0
    2.4160   -0.8209    1.2325 H   0  0  0  0  0  0  0  0  0  0  0  0
    4.0574    1.1418    1.3802 H   0  0  0  0  0  0  0  0  0  0  0  0
  1  2  1  0
  2  3  1  0
  3  4  2  0
  4  5  1  0
  5  6  2  0
  6  7  1  0
  7  8  1  0
  8  9  1  0
  7 10  1  0
 10 11  2  0
 11 12  1  0
 12 13  1  0
 13 14  2  0
  6  2  1  0
 14 10  1  0
  1 15  1  0
  1 16  1  0
  1 17  1  0
  3 18  1  0
  7 19  1  6
  8 20  1  0
  9 21  1  0
  9 22  1  0
 11 23  1  0
 12 24  1  0
M  END
$$$$

     RDKit          3D

 24 25  0  0  0  0  0  0  0  0999 V2000
    1.7970    0.2523    1.1750 C   0  0  0  0  0  0  0  0  0  0  0  0
    1.7769   -0.1327   -0.2320 N   0  0  0  0  0  0  0  0  0  0  0  0
    2.8105   -0.6902   -0.8877 C   0  0  0  0  0  0  0  0  0  0  0  0
    2.4126   -0.9022   -2.1656 N   0  0  0  0  0  0  0  0  0  0  0  0
    1.1569   -0.4763   -2.2711 N   0  0  0  0  0  0  0  0  0  0  0  0
    0.7472    0.0067   -1.0716 C   0  0  0  0  0  0  0  0  0  0  0  0
   -0.5762    0.5692   -0.7750 C   0  0  2  0  0  0  0  0  0  0  0  0
   -0.3844    1.7856   -0.0093 N   0  0  0  0  0  0  0  0  0  0  0  0
   -1.6627    2.3104    0.2656 N   0  0  0  0  0  0  0  0  0  0  0  0
   -1.4045   -0.4094   -0.0695 C   0  0  0  0  0  0  0  0  0  0  0  0
   -1.1395   -1.7506    0.0380 C   0  0  0  0  0  0  0  0  0  0  0  0
   -2.1218   -2.3231    0.7563 N   0  0  0  0  0  0  0  0  0  0  0  0
   -2.9618   -1.3620    1.0784 N   0  0  0  0  0  0  0  0  0  0  0  0
   -2.5474   -0.1880    0.5876 N   0  0  0  0  0  0  0  0  0  0  0  0
    1.5505    1.3101    1.2940 H   0  0  0  0  0  0  0  0  0  0  0  0
    2.7869    0.0309    1.6232 H   0  0  0  0  0  0  0  0  0  0  0  0
    1.0328   -0.3437    1.7446 H   0  0  0  0  0  0  0  0  0  0  0  0
    3.7797   -0.9249   -0.4688 H   0  0  0  0  0  0  0  0  0  0  0  0
   -1.0705    0.8558   -1.7365 H   0  0  0  0  0  0  0  0  0  0  0  0
    0.1341    2.4503   -0.6518 H   0  0  0  0  0  0  0  0  0  0  0  0
   -1.8752    2.2790    1.2839 H   0  0  0  0  0  0  0  0  0  0  0  0
   -1.7832    3.2648   -0.1189 H   0  0  0  0  0  0  0  0  0  0  0  0
   -0.2979   -2.2714   -0.3738 H   0  0  0  0  0  0  0  0  0  0  0  0
   -2.1601   -3.3408    0.9848 H   0  0  0  0  0  0  0  0  0  0  0  0
  1  2  1  0
  2  3  1  0
  3  4  2  0
  4  5  1  0
  5  6  2  0
  6  7  1  0
  7  8  1  0
  8  9  1  0
  7 10  1  0
 10 11  2  0
 11 12  1  0
 12 13  1  0
 13 14  2  0
  6  2  1  0
 14 10  1  0
  1 15  1  0
  1 16  1  0
  1 17  1  0
  3 18  1  0
  7 19  1  6
  8 20  1  0
  9 21  1  0
  9 22  1  0
 11 23  1  0
 12 24  1  0
M  END
$$$$

     RDKit          3D

 24 25  0  0  0  0  0  0  0  0999 V2000
   -1.8968   -1.3470    1.1916 C   0  0  0  0  0  0  0  0  0  0  0  0
   -1.7367   -0.7187   -0.1117 N   0  0  0  0  0  0  0  0  0  0  0  0
   -2.4632   -0.9384   -1.2268 C   0  0  0  0  0  0  0  0  0  0  0  0
   -1.9516   -0.1377   -2.1669 N   0  0  0  0  0  0  0  0  0  0  0  0
   -0.9483    0.5468   -1.6447 N   0  0  0  0  0  0  0  0  0  0  0  0
   -0.7835    0.2057   -0.3478 C   0  0  0  0  0  0  0  0  0  0  0  0
    0.2188    0.7202    0.6262 C   0  0  2  0  0  0  0  0  0  0  0  0
    0.3146    2.1578    0.5403 N   0  0  0  0  0  0  0  0  0  0  0  0
    0.6981    2.6097   -0.7076 N   0  0  0  0  0  0  0  0  0  0  0  0
    1.5016    0.0415    0.4488 C   0  0  0  0  0  0  0  0  0  0  0  0
    1.7276   -1.0657   -0.3312 C   0  0  0  0  0  0  0  0  0  0  0  0
    3.0489   -1.3900   -0.2299 N   0  0  0  0  0  0  0  0  0  0  0  0
    3.6024   -0.4988    0.5913 N   0  0  0  0  0  0  0  0  0  0  0  0
    2.6653    0.3703    1.0039 N   0  0  0  0  0  0  0  0  0  0  0  0
   -0.8884   -1.7574    1.4753 H   0  0  0  0  0  0  0  0  0  0  0  0
   -2.1501   -0.6008    1.9704 H   0  0  0  0  0  0  0  0  0  0  0  0
   -2.5958   -2.2010    1.1597 H   0  0  0  0  0  0  0  0  0  0  0  0
   -3.2924   -1.6418   -1.2905 H   0  0  0  0  0  0  0  0  0  0  0  0
   -0.1773    0.4996    1.6609 H   0  0  0  0  0  0  0  0  0  0  0  0
   -0.4876    2.6405    0.9608 H   0  0  0  0  0  0  0  0  0  0  0  0
   -0.1029    2.7723   -1.3498 H   0  0  0  0  0  0  0  0  0  0  0  0
    1.1729    3.5497   -0.5631 H   0  0  0  0  0  0  0  0  0  0  0  0
    1.0268   -1.6219   -0.9372 H   0  0  0  0  0  0  0  0  0  0  0  0
    3.4977   -2.1948   -0.7221 H   0  0  0  0  0  0  0  0  0  0  0  0
  1  2  1  0
  2  3  1  0
  3  4  2  0
  4  5  1  0
  5  6  2  0
  6  7  1  0
  7  8  1  0
  8  9  1  0
  7 10  1  0
 10 11  2  0
 11 12  1  0
 12 13  1  0
 13 14  2  0
  6  2  1  0
 14 10  1  0
  1 15  1  0
  1 16  1  0
  1 17  1  0
  3 18  1  0
  7 19  1  1
  8 20  1  0
  9 21  1  0
  9 22  1  0
 11 23  1  0
 12 24  1  0
M  END
$$$$

     RDKit          3D

 24 25  0  0  0  0  0  0  0  0999 V2000
   -2.3470   -0.7573    1.0934 C   0  0  0  0  0  0  0  0  0  0  0  0
   -1.9219   -0.4225   -0.2512 N   0  0  0  0  0  0  0  0  0  0  0  0
   -2.7106   -0.6064   -1.3337 C   0  0  0  0  0  0  0  0  0  0  0  0
   -1.9819   -0.1852   -2.3896 N   0  0  0  0  0  0  0  0  0  0  0  0
   -0.7860    0.2423   -1.9644 N   0  0  0  0  0  0  0  0  0  0  0  0
   -0.7400    0.0974   -0.6281 C   0  0  0  0  0  0  0  0  0  0  0  0
    0.4010    0.4474    0.2511 C   0  0  2  0  0  0  0  0  0  0  0  0
    0.9257    1.7525   -0.1194 N   0  0  0  0  0  0  0  0  0  0  0  0
    0.0001    2.7662   -0.0113 N   0  0  0  0  0  0  0  0  0  0  0  0
    1.5125   -0.5269    0.1135 C   0  0  0  0  0  0  0  0  0  0  0  0
    2.8003   -0.4173    0.5222 C   0  0  0  0  0  0  0  0  0  0  0  0
    3.4325   -1.5582    0.1747 N   0  0  0  0  0  0  0  0  0  0  0  0
    2.5582   -2.3453   -0.4299 N   0  0  0  0  0  0  0  0  0  0  0  0
    1.3894   -1.7312   -0.4734 N   0  0  0  0  0  0  0  0  0  0  0  0
   -2.0570   -1.8183    1.3420 H   0  0  0  0  0  0  0  0  0  0  0  0
   -3.4478   -0.6836    1.1701 H   0  0  0  0  0  0  0  0  0  0  0  0
   -1.8553   -0.1229    1.8584 H   0  0  0  0  0  0  0  0  0  0  0  0
   -3.7099   -1.0068   -1.3360 H   0  0  0  0  0  0  0  0  0  0  0  0
    0.0274    0.4982    1.2922 H   0  0  0  0  0  0  0  0  0  0  0  0
    1.4417    1.7286   -1.0117 H   0  0  0  0  0  0  0  0  0  0  0  0
    0.3391    3.5480    0.5857 H   0  0  0  0  0  0  0  0  0  0  0  0
   -0.9669    2.4735    0.1644 H   0  0  0  0  0  0  0  0  0  0  0  0
    3.2519    0.4324    1.0379 H   0  0  0  0  0  0  0  0  0  0  0  0
    4.4444   -1.8045    0.3433 H   0  0  0  0  0  0  0  0  0  0  0  0
  1  2  1  0
  2  3  1  0
  3  4  2  0
  4  5  1  0
  5  6  2  0
  6  7  1  0
  7  8  1  0
  8  9  1  0
  7 10  1  0
 10 11  2  0
 11 12  1  0
 12 13  1  0
 13 14  2  0
  6  2  1  0
 14 10  1  0
  1 15  1  0
  1 16  1  0
  1 17  1  0
  3 18  1  0
  7 19  1  1
  8 20  1  0
  9 21  1  0
  9 22  1  0
 11 23  1  0
 12 24  1  0
M  END
$$$$

     RDKit          3D

 24 25  0  0  0  0  0  0  0  0999 V2000
   -2.1573   -0.8448    1.1694 C   0  0  0  0  0  0  0  0  0  0  0  0
   -1.9842   -0.4543   -0.2240 N   0  0  0  0  0  0  0  0  0  0  0  0
   -2.8196   -0.6593   -1.2659 C   0  0  0  0  0  0  0  0  0  0  0  0
   -2.2550   -0.1301   -2.3686 N   0  0  0  0  0  0  0  0  0  0  0  0
   -1.0949    0.3842   -1.9840 N   0  0  0  0  0  0  0  0  0  0  0  0
   -0.9195    0.1934   -0.6840 C   0  0  0  0  0  0  0  0  0  0  0  0
    0.2857    0.6470    0.0891 C   0  0  2  0  0  0  0  0  0  0  0  0
    0.5596    2.0009   -0.3338 N   0  0  0  0  0  0  0  0  0  0  0  0
    1.6673    2.5471    0.3147 N   0  0  0  0  0  0  0  0  0  0  0  0
    1.3710   -0.2871   -0.2150 C   0  0  0  0  0  0  0  0  0  0  0  0
    1.8628   -1.2309    0.6592 C   0  0  0  0  0  0  0  0  0  0  0  0
    2.8397   -1.8765    0.0059 N   0  0  0  0  0  0  0  0  0  0  0  0
    2.9693   -1.3840   -1.2052 N   0  0  0  0  0  0  0  0  0  0  0  0
    2.0844   -0.4171   -1.3564 N   0  0  0  0  0  0  0  0  0  0  0  0
   -1.5506   -1.7434    1.4076 H   0  0  0  0  0  0  0  0  0  0  0  0
   -3.2354   -1.0463    1.3897 H   0  0  0  0  0  0  0  0  0  0  0  0
   -1.8482    0.0400    1.7761 H   0  0  0  0  0  0  0  0  0  0  0  0
   -3.7643   -1.1697   -1.1553 H   0  0  0  0  0  0  0  0  0  0  0  0
    0.0164    0.6110    1.1442 H   0  0  0  0  0  0  0  0  0  0  0  0
   -0.2773    2.5794   -0.2002 H   0  0  0  0  0  0  0  0  0  0  0  0
    1.3205    2.9778    1.1979 H   0  0  0  0  0  0  0  0  0  0  0  0
    2.0201    3.3224   -0.2745 H   0  0  0  0  0  0  0  0  0  0  0  0
    1.5115   -1.4063    1.6870 H   0  0  0  0  0  0  0  0  0  0  0  0
    3.3979   -2.6535    0.4261 H   0  0  0  0  0  0  0  0  0  0  0  0
  1  2  1  0
  2  3  1  0
  3  4  2  0
  4  5  1  0
  5  6  2  0
  6  7  1  0
  7  8  1  0
  8  9  1  0
  7 10  1  0
 10 11  2  0
 11 12  1  0
 12 13  1  0
 13 14  2  0
  6  2  1  0
 14 10  1  0
  1 15  1  0
  1 16  1  0
  1 17  1  0
  3 18  1  0
  7 19  1  1
  8 20  1  0
  9 21  1  0
  9 22  1  0
 11 23  1  0
 12 24  1  0
M  END
$$$$

     RDKit          3D

 24 25  0  0  0  0  0  0  0  0999 V2000
    1.8430    0.2500   -0.9459 C   0  0  0  0  0  0  0  0  0  0  0  0
    1.6873    0.2520    0.4769 N   0  0  0  0  0  0  0  0  0  0  0  0
    2.6486    0.6124    1.3778 C   0  0  0  0  0  0  0  0  0  0  0  0
    2.0732    0.4639    2.5819 N   0  0  0  0  0  0  0  0  0  0  0  0
    0.8468    0.0438    2.4594 N   0  0  0  0  0  0  0  0  0  0  0  0
    0.5664   -0.1024    1.1302 C   0  0  0  0  0  0  0  0  0  0  0  0
   -0.7076   -0.5556    0.5673 C   0  0  2  0  0  0  0  0  0  0  0  0
   -0.5633   -1.5387   -0.4879 N   0  0  0  0  0  0  0  0  0  0  0  0
    0.1063   -2.6443    0.0892 N   0  0  0  0  0  0  0  0  0  0  0  0
   -1.5780    0.5493    0.0966 C   0  0  0  0  0  0  0  0  0  0  0  0
   -1.5201    1.1896   -1.1222 C   0  0  0  0  0  0  0  0  0  0  0  0
   -2.4843    2.1154   -1.1209 N   0  0  0  0  0  0  0  0  0  0  0  0
   -3.1402    2.0917    0.0243 N   0  0  0  0  0  0  0  0  0  0  0  0
   -2.5875    1.1412    0.7589 N   0  0  0  0  0  0  0  0  0  0  0  0
    1.4873    1.1822   -1.4293 H   0  0  0  0  0  0  0  0  0  0  0  0
    1.4150   -0.6359   -1.4516 H   0  0  0  0  0  0  0  0  0  0  0  0
    2.9472    0.2103   -1.1843 H   0  0  0  0  0  0  0  0  0  0  0  0
    3.6473    0.9404    1.1131 H   0  0  0  0  0  0  0  0  0  0  0  0
   -1.2918   -1.0799    1.3808 H   0  0  0  0  0  0  0  0  0  0  0  0
   -1.5427   -1.8921   -0.6882 H   0  0  0  0  0  0  0  0  0  0  0  0
   -0.4952   -2.9995    0.8814 H   0  0  0  0  0  0  0  0  0  0  0  0
    0.1758   -3.3714   -0.6440 H   0  0  0  0  0  0  0  0  0  0  0  0
   -0.8514    1.0126   -1.9377 H   0  0  0  0  0  0  0  0  0  0  0  0
   -2.6818    2.7648   -1.9260 H   0  0  0  0  0  0  0  0  0  0  0  0
  1  2  1  0
  2  3  1  0
  3  4  2  0
  4  5  1  0
  5  6  2  0
  6  7  1  0
  7  8  1  0
  8  9  1  0
  7 10  1  0
 10 11  2  0
 11 12  1  0
 12 13  1  0
 13 14  2  0
  6  2  1  0
 14 10  1  0
  1 15  1  0
  1 16  1  0
  1 17  1  0
  3 18  1  0
  7 19  1  1
  8 20  1  0
  9 21  1  0
  9 22  1  0
 11 23  1  0
 12 24  1  0
M  END
$$$$
