
     RDKit          3D

 25 25  0  0  0  0  0  0  0  0999 V2000
    3.1111    0.8938   -0.1735 C   0  0  0  0  0  0  0  0  0  0  0  0
    2.1893    0.3626    0.7261 O   0  0  0  0  0  0  0  0  0  0  0  0
    0.9114    0.4014    0.2353 C   0  0  2  0  0  0  0  0  0  0  0  0
    0.1285    1.2262    1.0560 O   0  0  0  0  0  0  0  0  0  0  0  0
   -1.2314    0.9830    0.8529 C   0  0  0  0  0  0  0  0  0  0  0  0
   -1.4790    0.6013   -0.5896 C   0  0  2  0  0  0  0  0  0  0  0  0
   -2.9084    0.6531   -0.8302 N   0  0  0  0  0  0  0  0  0  0  0  0
   -0.9295   -0.7958   -0.8060 C   0  0  2  0  0  0  0  0  0  0  0  0
   -1.9323   -1.7035   -0.5628 O   0  0  0  0  0  0  0  0  0  0  0  0
    0.2402   -0.9484    0.1600 C   0  0  1  0  0  0  0  0  0  0  0  0
    1.1440   -1.9729   -0.2335 N   0  0  0  0  0  0  0  0  0  0  0  0
    2.8501    1.9630   -0.3867 H   0  0  0  0  0  0  0  0  0  0  0  0
    4.1115    0.8829    0.3015 H   0  0  0  0  0  0  0  0  0  0  0  0
    3.1436    0.3642   -1.1345 H   0  0  0  0  0  0  0  0  0  0  0  0
    0.9295    0.8574   -0.7821 H   0  0  0  0  0  0  0  0  0  0  0  0
   -1.5903    0.1693    1.5219 H   0  0  0  0  0  0  0  0  0  0  0  0
   -1.8402    1.8791    1.0933 H   0  0  0  0  0  0  0  0  0  0  0  0
   -1.0041    1.3111   -1.2714 H   0  0  0  0  0  0  0  0  0  0  0  0
   -3.1055    0.2057   -1.7725 H   0  0  0  0  0  0  0  0  0  0  0  0
   -3.1554    1.6732   -0.9225 H   0  0  0  0  0  0  0  0  0  0  0  0
   -0.5493   -0.9280   -1.8354 H   0  0  0  0  0  0  0  0  0  0  0  0
   -1.7060   -2.3665    0.1347 H   0  0  0  0  0  0  0  0  0  0  0  0
   -0.1613   -1.2470    1.1748 H   0  0  0  0  0  0  0  0  0  0  0  0
    0.7439   -2.7762   -0.7141 H   0  0  0  0  0  0  0  0  0  0  0  0
    2.0895   -1.6891   -0.4775 H   0  0  0  0  0  0  0  0  0  0  0  0
  1  2  1  0
  2  3  1  0
  3  4  1  0
  4  5  1  0
  5  6  1  0
  6  7  1  0
  6  8  1  0
  8  9  1  0
  8 10  1  0
 10 11  1  0
 10  3  1  0
  1 12  1  0
  1 13  1  0
  1 14  1  0
  3 15  1  6
  5 16  1  0
  5 17  1  0
  6 18  1  6
  7 19  1  0
  7 20  1  0
  8 21  1  6
  9 22  1  0
 10 23  1  1
 11 24  1  0
 11 25  1  0
M  END
$$$$

     RDKit          3D

 25 25  0  0  0  0  0  0  0  0999 V2000
    3.2707    0.4878    0.2117 C   0  0  0  0  0  0  0  0  0  0  0  0
    2.0484    1.1500    0.2654 O   0  0  0  0  0  0  0  0  0  0  0  0
    1.0874    0.3812   -0.3241 C   0  0  2  0  0  0  0  0  0  0  0  0
    0.4594    0.9729   -1.4021 O   0  0  0  0  0  0  0  0  0  0  0  0
   -0.8879    1.1637   -1.2472 C   0  0  0  0  0  0  0  0  0  0  0  0
   -1.6465   -0.1188   -0.9568 C   0  0  2  0  0  0  0  0  0  0  0  0
   -2.9215    0.1558   -0.3173 N   0  0  0  0  0  0  0  0  0  0  0  0
   -0.8624   -1.0016   -0.0088 C   0  0  2  0  0  0  0  0  0  0  0  0
   -1.6579   -1.7217    0.8486 O   0  0  0  0  0  0  0  0  0  0  0  0
    0.0717   -0.0435    0.7440 C   0  0  1  0  0  0  0  0  0  0  0  0
    0.7616   -0.7098    1.8064 N   0  0  0  0  0  0  0  0  0  0  0  0
    4.0866    1.0639    0.6746 H   0  0  0  0  0  0  0  0  0  0  0  0
    3.4857    0.3280   -0.8845 H   0  0  0  0  0  0  0  0  0  0  0  0
    3.1704   -0.5147    0.6918 H   0  0  0  0  0  0  0  0  0  0  0  0
    1.5393   -0.5627   -0.6864 H   0  0  0  0  0  0  0  0  0  0  0  0
   -1.2827    1.5313   -2.2273 H   0  0  0  0  0  0  0  0  0  0  0  0
   -1.1461    1.9669   -0.5107 H   0  0  0  0  0  0  0  0  0  0  0  0
   -1.8344   -0.6839   -1.8734 H   0  0  0  0  0  0  0  0  0  0  0  0
   -2.8080    0.5665    0.6348 H   0  0  0  0  0  0  0  0  0  0  0  0
   -3.5738    0.6765   -0.9252 H   0  0  0  0  0  0  0  0  0  0  0  0
   -0.2102   -1.6515   -0.6450 H   0  0  0  0  0  0  0  0  0  0  0  0
   -1.6538   -2.6674    0.5293 H   0  0  0  0  0  0  0  0  0  0  0  0
   -0.4742    0.8653    1.0693 H   0  0  0  0  0  0  0  0  0  0  0  0
    0.7510   -0.0744    2.6464 H   0  0  0  0  0  0  0  0  0  0  0  0
    0.2273   -1.5596    2.0743 H   0  0  0  0  0  0  0  0  0  0  0  0
  1  2  1  0
  2  3  1  0
  3  4  1  0
  4  5  1  0
  5  6  1  0
  6  7  1  0
  6  8  1  0
  8  9  1  0
  8 10  1  0
 10 11  1  0
 10  3  1  0
  1 12  1  0
  1 13  1  0
  1 14  1  0
  3 15  1  6
  5 16  1  0
  5 17  1  0
  6 18  1  6
  7 19  1  0
  7 20  1  0
  8 21  1  6
  9 22  1  0
 10 23  1  1
 11 24  1  0
 11 25  1  0
M  END
$$$$

     RDKit          3D

 25 25  0  0  0  0  0  0  0  0999 V2000
    3.3438   -0.4333   -0.2916 C   0  0  0  0  0  0  0  0  0  0  0  0
    2.2398    0.3902   -0.4761 O   0  0  0  0  0  0  0  0  0  0  0  0
    1.0383   -0.3224   -0.3647 C   0  0  2  0  0  0  0  0  0  0  0  0
    0.4287   -0.2716   -1.5915 O   0  0  0  0  0  0  0  0  0  0  0  0
   -0.6469    0.6064   -1.6473 C   0  0  0  0  0  0  0  0  0  0  0  0
   -1.7305   -0.0102   -0.7651 C   0  0  2  0  0  0  0  0  0  0  0  0
   -2.9949    0.6441   -0.9085 N   0  0  0  0  0  0  0  0  0  0  0  0
   -1.2296    0.1081    0.6404 C   0  0  2  0  0  0  0  0  0  0  0  0
   -1.7985    1.2853    1.1780 O   0  0  0  0  0  0  0  0  0  0  0  0
    0.2474    0.2074    0.7694 C   0  0  1  0  0  0  0  0  0  0  0  0
    0.6095   -0.4979    2.0106 N   0  0  0  0  0  0  0  0  0  0  0  0
    3.3600   -0.9218    0.7036 H   0  0  0  0  0  0  0  0  0  0  0  0
    3.4521   -1.1994   -1.0723 H   0  0  0  0  0  0  0  0  0  0  0  0
    4.2372    0.2352   -0.3156 H   0  0  0  0  0  0  0  0  0  0  0  0
    1.2901   -1.4012   -0.1497 H   0  0  0  0  0  0  0  0  0  0  0  0
   -0.9736    0.6904   -2.6994 H   0  0  0  0  0  0  0  0  0  0  0  0
   -0.3234    1.5787   -1.2304 H   0  0  0  0  0  0  0  0  0  0  0  0
   -1.7615   -1.0926   -1.0203 H   0  0  0  0  0  0  0  0  0  0  0  0
   -3.7190   -0.0717   -1.1860 H   0  0  0  0  0  0  0  0  0  0  0  0
   -3.3242    1.0528   -0.0025 H   0  0  0  0  0  0  0  0  0  0  0  0
   -1.6703   -0.7209    1.2302 H   0  0  0  0  0  0  0  0  0  0  0  0
   -1.0907    1.9616    1.3810 H   0  0  0  0  0  0  0  0  0  0  0  0
    0.5575    1.2712    0.9428 H   0  0  0  0  0  0  0  0  0  0  0  0
    0.0780   -1.4076    2.0708 H   0  0  0  0  0  0  0  0  0  0  0  0
    0.3805    0.1487    2.7944 H   0  0  0  0  0  0  0  0  0  0  0  0
  1  2  1  0
  2  3  1  0
  3  4  1  0
  4  5  1  0
  5  6  1  0
  6  7  1  0
  6  8  1  0
  8  9  1  0
  8 10  1  0
 10 11  1  0
 10  3  1  0
  1 12  1  0
  1 13  1  0
  1 14  1  0
  3 15  1  1
  5 16  1  0
  5 17  1  0
  6 18  1  6
  7 19  1  0
  7 20  1  0
  8 21  1  1
  9 22  1  0
 10 23  1  1
 11 24  1  0
 11 25  1  0
M  END
$$$$

     RDKit          3D

 25 25  0  0  0  0  0  0  0  0999 V2000
    3.2682   -0.7958    0.8995 C   0  0  0  0  0  0  0  0  0  0  0  0
    2.1234   -1.1020    0.1986 O   0  0  0  0  0  0  0  0  0  0  0  0
    0.9994   -0.4242    0.6131 C   0  0  2  0  0  0  0  0  0  0  0  0
    0.0678   -1.2841    1.1219 O   0  0  0  0  0  0  0  0  0  0  0  0
   -1.0890   -1.4346    0.4053 C   0  0  0  0  0  0  0  0  0  0  0  0
   -1.9020   -0.1533    0.3324 C   0  0  2  0  0  0  0  0  0  0  0  0
   -2.6998   -0.2227   -0.8576 N   0  0  0  0  0  0  0  0  0  0  0  0
   -0.9229    1.0094    0.1686 C   0  0  2  0  0  0  0  0  0  0  0  0
   -1.5221    1.9202   -0.6964 O   0  0  0  0  0  0  0  0  0  0  0  0
    0.3990    0.4737   -0.4060 C   0  0  1  0  0  0  0  0  0  0  0  0
    1.2592    1.5518   -0.7879 N   0  0  0  0  0  0  0  0  0  0  0  0
    3.5812    0.2410    0.8672 H   0  0  0  0  0  0  0  0  0  0  0  0
    3.0783   -1.0996    1.9687 H   0  0  0  0  0  0  0  0  0  0  0  0
    4.1144   -1.4314    0.5696 H   0  0  0  0  0  0  0  0  0  0  0  0
    1.3406    0.2380    1.4653 H   0  0  0  0  0  0  0  0  0  0  0  0
   -0.8724   -1.7615   -0.6378 H   0  0  0  0  0  0  0  0  0  0  0  0
   -1.7171   -2.2170    0.8749 H   0  0  0  0  0  0  0  0  0  0  0  0
   -2.5627   -0.0318    1.1998 H   0  0  0  0  0  0  0  0  0  0  0  0
   -2.7189   -1.1586   -1.3031 H   0  0  0  0  0  0  0  0  0  0  0  0
   -3.6499    0.2018   -0.7575 H   0  0  0  0  0  0  0  0  0  0  0  0
   -0.7736    1.4721    1.1483 H   0  0  0  0  0  0  0  0  0  0  0  0
   -2.5021    1.8959   -0.4900 H   0  0  0  0  0  0  0  0  0  0  0  0
    0.0970   -0.0984   -1.3138 H   0  0  0  0  0  0  0  0  0  0  0  0
    0.7177    2.3721   -1.1241 H   0  0  0  0  0  0  0  0  0  0  0  0
    1.8861    1.8393   -0.0057 H   0  0  0  0  0  0  0  0  0  0  0  0
  1  2  1  0
  2  3  1  0
  3  4  1  0
  4  5  1  0
  5  6  1  0
  6  7  1  0
  6  8  1  0
  8  9  1  0
  8 10  1  0
 10 11  1  0
 10  3  1  0
  1 12  1  0
  1 13  1  0
  1 14  1  0
  3 15  1  1
  5 16  1  0
  5 17  1  0
  6 18  1  1
  7 19  1  0
  7 20  1  0
  8 21  1  1
  9 22  1  0
 10 23  1  6
 11 24  1  0
 11 25  1  0
M  END
$$$$

     RDKit          3D

 25 25  0  0  0  0  0  0  0  0999 V2000
    3.1678   -0.4400    0.1380 C   0  0  0  0  0  0  0  0  0  0  0  0
    2.3403    0.3308   -0.6749 O   0  0  0  0  0  0  0  0  0  0  0  0
    1.0536   -0.0718   -0.4541 C   0  0  2  0  0  0  0  0  0  0  0  0
    0.5437   -0.5206   -1.6935 O   0  0  0  0  0  0  0  0  0  0  0  0
   -0.7939   -0.8210   -1.6251 C   0  0  0  0  0  0  0  0  0  0  0  0
   -1.3183   -0.9204   -0.2077 C   0  0  2  0  0  0  0  0  0  0  0  0
   -2.7430   -1.1594   -0.2973 N   0  0  0  0  0  0  0  0  0  0  0  0
   -1.0873    0.3365    0.5824 C   0  0  2  0  0  0  0  0  0  0  0  0
   -2.1935    1.1682    0.6203 O   0  0  0  0  0  0  0  0  0  0  0  0
    0.1300    1.0290    0.0012 C   0  0  1  0  0  0  0  0  0  0  0  0
    0.7140    1.8296    1.0588 N   0  0  0  0  0  0  0  0  0  0  0  0
    2.8877   -0.2820    1.2019 H   0  0  0  0  0  0  0  0  0  0  0  0
    4.2385   -0.2137   -0.0122 H   0  0  0  0  0  0  0  0  0  0  0  0
    2.9296   -1.5077   -0.0984 H   0  0  0  0  0  0  0  0  0  0  0  0
    1.0076   -0.8787    0.2886 H   0  0  0  0  0  0  0  0  0  0  0  0
   -0.9198   -1.8525   -2.0646 H   0  0  0  0  0  0  0  0  0  0  0  0
   -1.4013   -0.1093   -2.2170 H   0  0  0  0  0  0  0  0  0  0  0  0
   -0.8205   -1.8014    0.2676 H   0  0  0  0  0  0  0  0  0  0  0  0
   -3.3030   -0.2961   -0.1584 H   0  0  0  0  0  0  0  0  0  0  0  0
   -3.0617   -1.9712    0.2672 H   0  0  0  0  0  0  0  0  0  0  0  0
   -0.8119    0.0499    1.6353 H   0  0  0  0  0  0  0  0  0  0  0  0
   -2.2695    1.6516   -0.2471 H   0  0  0  0  0  0  0  0  0  0  0  0
   -0.1909    1.6709   -0.8425 H   0  0  0  0  0  0  0  0  0  0  0  0
    0.1887    2.7211    1.1534 H   0  0  0  0  0  0  0  0  0  0  0  0
    1.7129    2.0580    0.8795 H   0  0  0  0  0  0  0  0  0  0  0  0
  1  2  1  0
  2  3  1  0
  3  4  1  0
  4  5  1  0
  5  6  1  0
  6  7  1  0
  6  8  1  0
  8  9  1  0
  8 10  1  0
 10 11  1  0
 10  3  1  0
  1 12  1  0
  1 13  1  0
  1 14  1  0
  3 15  1  1
  5 16  1  0
  5 17  1  0
  6 18  1  1
  7 19  1  0
  7 20  1  0
  8 21  1  1
  9 22  1  0
 10 23  1  6
 11 24  1  0
 11 25  1  0
M  END
$$$$

     RDKit          3D

 25 25  0  0  0  0  0  0  0  0999 V2000
    2.8219   -0.5002   -1.3872 C   0  0  0  0  0  0  0  0  0  0  0  0
    1.5057   -0.0788   -1.4174 O   0  0  0  0  0  0  0  0  0  0  0  0
    0.7629   -0.5475   -0.3296 C   0  0  2  0  0  0  0  0  0  0  0  0
   -0.1947   -1.3854   -0.8310 O   0  0  0  0  0  0  0  0  0  0  0  0
   -1.2674   -1.6321   -0.0334 C   0  0  0  0  0  0  0  0  0  0  0  0
   -1.9621   -0.3035    0.2460 C   0  0  2  0  0  0  0  0  0  0  0  0
   -2.2428    0.4046   -0.9860 N   0  0  0  0  0  0  0  0  0  0  0  0
   -1.0123    0.4628    1.1358 C   0  0  2  0  0  0  0  0  0  0  0  0
   -1.5082    1.7268    1.4455 O   0  0  0  0  0  0  0  0  0  0  0  0
    0.2897    0.6169    0.4429 C   0  0  1  0  0  0  0  0  0  0  0  0
    1.3011    0.9177    1.4693 N   0  0  0  0  0  0  0  0  0  0  0  0
    3.3254   -0.0887   -2.2712 H   0  0  0  0  0  0  0  0  0  0  0  0
    3.3574   -0.2372   -0.4701 H   0  0  0  0  0  0  0  0  0  0  0  0
    2.8060   -1.6172   -1.5211 H   0  0  0  0  0  0  0  0  0  0  0  0
    1.4814   -1.1619    0.2880 H   0  0  0  0  0  0  0  0  0  0  0  0
   -1.0301   -2.0825    0.9493 H   0  0  0  0  0  0  0  0  0  0  0  0
   -1.9828   -2.2649   -0.5665 H   0  0  0  0  0  0  0  0  0  0  0  0
   -2.9113   -0.4697    0.7844 H   0  0  0  0  0  0  0  0  0  0  0  0
   -2.5691   -0.2464   -1.7284 H   0  0  0  0  0  0  0  0  0  0  0  0
   -1.4519    1.0100   -1.2901 H   0  0  0  0  0  0  0  0  0  0  0  0
   -0.9619   -0.0952    2.0978 H   0  0  0  0  0  0  0  0  0  0  0  0
   -1.6655    2.2761    0.6372 H   0  0  0  0  0  0  0  0  0  0  0  0
    0.2372    1.5597   -0.1754 H   0  0  0  0  0  0  0  0  0  0  0  0
    0.8566    1.1660    2.3755 H   0  0  0  0  0  0  0  0  0  0  0  0
    2.0147    1.5753    1.1354 H   0  0  0  0  0  0  0  0  0  0  0  0
  1  2  1  0
  2  3  1  0
  3  4  1  0
  4  5  1  0
  5  6  1  0
  6  7  1  0
  6  8  1  0
  8  9  1  0
  8 10  1  0
 10 11  1  0
 10  3  1  0
  1 12  1  0
  1 13  1  0
  1 14  1  0
  3 15  1  1
  5 16  1  0
  5 17  1  0
  6 18  1  1
  7 19  1  0
  7 20  1  0
  8 21  1  1
  9 22  1  0
 10 23  1  6
 11 24  1  0
 11 25  1  0
M  END
$$$$

     RDKit          3D

 25 25  0  0  0  0  0  0  0  0999 V2000
    3.2546    0.3744    0.1311 C   0  0  0  0  0  0  0  0  0  0  0  0
    2.2136   -0.0302   -0.6985 O   0  0  0  0  0  0  0  0  0  0  0  0
    1.0586   -0.3245   -0.0220 C   0  0  2  0  0  0  0  0  0  0  0  0
    0.6288   -1.6102   -0.1787 O   0  0  0  0  0  0  0  0  0  0  0  0
   -0.6136   -1.9346    0.1817 C   0  0  0  0  0  0  0  0  0  0  0  0
   -1.6477   -0.8869    0.2994 C   0  0  2  0  0  0  0  0  0  0  0  0
   -2.4438   -0.7913   -0.9140 N   0  0  0  0  0  0  0  0  0  0  0  0
   -1.1096    0.5014    0.5614 C   0  0  2  0  0  0  0  0  0  0  0  0
   -2.1161    1.4364    0.3984 O   0  0  0  0  0  0  0  0  0  0  0  0
    0.0033    0.6809   -0.4628 C   0  0  1  0  0  0  0  0  0  0  0  0
    0.5275    2.0201   -0.4592 N   0  0  0  0  0  0  0  0  0  0  0  0
    4.1262    0.5825   -0.5239 H   0  0  0  0  0  0  0  0  0  0  0  0
    3.0369    1.3189    0.6673 H   0  0  0  0  0  0  0  0  0  0  0  0
    3.5728   -0.4402    0.8254 H   0  0  0  0  0  0  0  0  0  0  0  0
    1.2411   -0.1613    1.0788 H   0  0  0  0  0  0  0  0  0  0  0  0
   -0.5740   -2.4868    1.1687 H   0  0  0  0  0  0  0  0  0  0  0  0
   -1.0033   -2.7203   -0.5332 H   0  0  0  0  0  0  0  0  0  0  0  0
   -2.3813   -1.0993    1.1223 H   0  0  0  0  0  0  0  0  0  0  0  0
   -3.4021   -0.4178   -0.7170 H   0  0  0  0  0  0  0  0  0  0  0  0
   -2.4780   -1.7195   -1.4072 H   0  0  0  0  0  0  0  0  0  0  0  0
   -0.7077    0.5005    1.5974 H   0  0  0  0  0  0  0  0  0  0  0  0
   -1.9836    2.1263    1.1032 H   0  0  0  0  0  0  0  0  0  0  0  0
   -0.3771    0.3687   -1.4538 H   0  0  0  0  0  0  0  0  0  0  0  0
   -0.2079    2.6789   -0.7330 H   0  0  0  0  0  0  0  0  0  0  0  0
    1.3824    2.0339   -1.0319 H   0  0  0  0  0  0  0  0  0  0  0  0
  1  2  1  0
  2  3  1  0
  3  4  1  0
  4  5  1  0
  5  6  1  0
  6  7  1  0
  6  8  1  0
  8  9  1  0
  8 10  1  0
 10 11  1  0
 10  3  1  0
  1 12  1  0
  1 13  1  0
  1 14  1  0
  3 15  1  1
  5 16  1  0
  5 17  1  0
  6 18  1  1
  7 19  1  0
  7 20  1  0
  8 21  1  1
  9 22  1  0
 10 23  1  6
 11 24  1  0
 11 25  1  0
M  END
$$$$

     RDKit          3D

 25 25  0  0  0  0  0  0  0  0999 V2000
   -3.1579   -0.9521   -0.4153 C   0  0  0  0  0  0  0  0  0  0  0  0
   -2.3458   -0.3386    0.5353 O   0  0  0  0  0  0  0  0  0  0  0  0
   -1.0189   -0.3091    0.1671 C   0  0  2  0  0  0  0  0  0  0  0  0
   -0.2243   -1.0548    1.0483 O   0  0  0  0  0  0  0  0  0  0  0  0
    0.9422   -1.3776    0.3612 C   0  0  0  0  0  0  0  0  0  0  0  0
    1.6433   -0.1223   -0.1175 C   0  0  2  0  0  0  0  0  0  0  0  0
    3.0368   -0.2507    0.1818 N   0  0  0  0  0  0  0  0  0  0  0  0
    0.9965    1.0595    0.5716 C   0  0  2  0  0  0  0  0  0  0  0  0
    1.0244    0.8927    1.9538 O   0  0  0  0  0  0  0  0  0  0  0  0
   -0.4528    1.0928    0.1327 C   0  0  1  0  0  0  0  0  0  0  0  0
   -0.5333    1.5581   -1.2497 N   0  0  0  0  0  0  0  0  0  0  0  0
   -3.0522   -0.3633   -1.3607 H   0  0  0  0  0  0  0  0  0  0  0  0
   -4.1989   -0.9285   -0.0450 H   0  0  0  0  0  0  0  0  0  0  0  0
   -2.7943   -1.9850   -0.5749 H   0  0  0  0  0  0  0  0  0  0  0  0
   -0.9333   -0.7974   -0.8248 H   0  0  0  0  0  0  0  0  0  0  0  0
    1.6003   -1.9731    1.0050 H   0  0  0  0  0  0  0  0  0  0  0  0
    0.6503   -1.9578   -0.5496 H   0  0  0  0  0  0  0  0  0  0  0  0
    1.4918    0.0287   -1.2079 H   0  0  0  0  0  0  0  0  0  0  0  0
    3.4881   -0.8258   -0.5375 H   0  0  0  0  0  0  0  0  0  0  0  0
    3.5060    0.6322    0.4092 H   0  0  0  0  0  0  0  0  0  0  0  0
    1.5013    2.0155    0.3536 H   0  0  0  0  0  0  0  0  0  0  0  0
    1.5575    0.1210    2.2165 H   0  0  0  0  0  0  0  0  0  0  0  0
   -1.0534    1.7580    0.8044 H   0  0  0  0  0  0  0  0  0  0  0  0
   -0.1296    2.5174   -1.3579 H   0  0  0  0  0  0  0  0  0  0  0  0
   -1.5438    1.5600   -1.4997 H   0  0  0  0  0  0  0  0  0  0  0  0
  1  2  1  0
  2  3  1  0
  3  4  1  0
  4  5  1  0
  5  6  1  0
  6  7  1  0
  6  8  1  0
  8  9  1  0
  8 10  1  0
 10 11  1  0
 10  3  1  0
  1 12  1  0
  1 13  1  0
  1 14  1  0
  3 15  1  6
  5 16  1  0
  5 17  1  0
  6 18  1  6
  7 19  1  0
  7 20  1  0
  8 21  1  1
  9 22  1  0
 10 23  1  1
 11 24  1  0
 11 25  1  0
M  END
$$$$
