
     RDKit          3D

 25 25  0  0  0  0  0  0  0  0999 V2000
    3.7593    0.3149    0.2448 O   0  0  0  0  0  0  0  0  0  0  0  0
    2.3801    0.3480    0.5539 C   0  0  0  0  0  0  0  0  0  0  0  0
    1.6458    0.1308   -0.7223 C   0  0  1  0  0  0  0  0  0  0  0  0
    2.0013   -1.1041   -1.2588 O   0  0  0  0  0  0  0  0  0  0  0  0
    0.1618    0.1829   -0.6091 C   0  0  2  0  0  0  0  0  0  0  0  0
   -0.3605    1.3980   -0.0704 N   0  0  0  0  0  0  0  0  0  0  0  0
   -1.6268    1.0694    0.5761 C   0  0  1  0  0  0  0  0  0  0  0  0
   -2.6520    1.9000    0.1909 O   0  0  0  0  0  0  0  0  0  0  0  0
   -1.8860   -0.3894    0.2201 C   0  0  2  0  0  0  0  0  0  0  0  0
   -2.6916   -1.0302    1.0998 O   0  0  0  0  0  0  0  0  0  0  0  0
   -0.4267   -0.8713    0.2777 C   0  0  1  0  0  0  0  0  0  0  0  0
   -0.2784   -2.1477   -0.1699 O   0  0  0  0  0  0  0  0  0  0  0  0
    3.9192   -0.4688   -0.3635 H   0  0  0  0  0  0  0  0  0  0  0  0
    2.2070    1.3970    0.9301 H   0  0  0  0  0  0  0  0  0  0  0  0
    2.1961   -0.4037    1.3290 H   0  0  0  0  0  0  0  0  0  0  0  0
    1.9665    0.8975   -1.4462 H   0  0  0  0  0  0  0  0  0  0  0  0
    2.0752   -1.7822   -0.5439 H   0  0  0  0  0  0  0  0  0  0  0  0
   -0.2664    0.0454   -1.6215 H   0  0  0  0  0  0  0  0  0  0  0  0
   -0.5828    2.0749   -0.8345 H   0  0  0  0  0  0  0  0  0  0  0  0
   -1.4715    1.0731    1.6934 H   0  0  0  0  0  0  0  0  0  0  0  0
   -3.4246    1.3945   -0.1437 H   0  0  0  0  0  0  0  0  0  0  0  0
   -2.1808   -0.4097   -0.8301 H   0  0  0  0  0  0  0  0  0  0  0  0
   -3.4483   -0.4585    1.3907 H   0  0  0  0  0  0  0  0  0  0  0  0
   -0.1306   -0.7499    1.3462 H   0  0  0  0  0  0  0  0  0  0  0  0
   -0.8857   -2.4107   -0.8770 H   0  0  0  0  0  0  0  0  0  0  0  0
  1  2  1  0
  2  3  1  0
  3  4  1  0
  3  5  1  0
  5  6  1  0
  6  7  1  0
  7  8  1  0
  7  9  1  0
  9 10  1  0
  9 11  1  0
 11 12  1  0
 11  5  1  0
  1 13  1  0
  2 14  1  0
  2 15  1  0
  3 16  1  6
  4 17  1  0
  5 18  1  6
  6 19  1  0
  7 20  1  1
  8 21  1  0
  9 22  1  6
 10 23  1  0
 11 24  1  1
 12 25  1  0
M  END
$$$$

     RDKit          3D

 25 25  0  0  0  0  0  0  0  0999 V2000
    2.8931    0.1029   -0.7153 O   0  0  0  0  0  0  0  0  0  0  0  0
    2.3292   -0.9823   -0.0698 C   0  0  0  0  0  0  0  0  0  0  0  0
    1.2819   -0.5440    0.9463 C   0  0  1  0  0  0  0  0  0  0  0  0
    1.9837    0.2743    1.8627 O   0  0  0  0  0  0  0  0  0  0  0  0
    0.3095    0.3504    0.2497 C   0  0  2  0  0  0  0  0  0  0  0  0
   -0.6299    0.9780    1.1634 N   0  0  0  0  0  0  0  0  0  0  0  0
   -1.8174    1.3045    0.4052 C   0  0  1  0  0  0  0  0  0  0  0  0
   -2.0516    2.6749    0.4313 O   0  0  0  0  0  0  0  0  0  0  0  0
   -1.5817    0.7944   -1.0001 C   0  0  2  0  0  0  0  0  0  0  0  0
   -2.7214    0.3615   -1.6212 O   0  0  0  0  0  0  0  0  0  0  0  0
   -0.6155   -0.3625   -0.7001 C   0  0  1  0  0  0  0  0  0  0  0  0
   -0.0035   -0.8087   -1.8544 O   0  0  0  0  0  0  0  0  0  0  0  0
    3.8387    0.2016   -0.4595 H   0  0  0  0  0  0  0  0  0  0  0  0
    1.9120   -1.6597   -0.8371 H   0  0  0  0  0  0  0  0  0  0  0  0
    3.1293   -1.5585    0.4578 H   0  0  0  0  0  0  0  0  0  0  0  0
    0.8611   -1.3788    1.4961 H   0  0  0  0  0  0  0  0  0  0  0  0
    1.4574    0.4165    2.6856 H   0  0  0  0  0  0  0  0  0  0  0  0
    0.8803    1.0902   -0.3363 H   0  0  0  0  0  0  0  0  0  0  0  0
   -0.9061    0.2370    1.8603 H   0  0  0  0  0  0  0  0  0  0  0  0
   -2.7292    0.8133    0.7849 H   0  0  0  0  0  0  0  0  0  0  0  0
   -2.7806    2.9076    1.0381 H   0  0  0  0  0  0  0  0  0  0  0  0
   -1.0073    1.5461   -1.5726 H   0  0  0  0  0  0  0  0  0  0  0  0
   -2.6196   -0.5450   -2.0094 H   0  0  0  0  0  0  0  0  0  0  0  0
   -1.2348   -1.1359   -0.1954 H   0  0  0  0  0  0  0  0  0  0  0  0
   -0.1775   -1.7860   -2.0104 H   0  0  0  0  0  0  0  0  0  0  0  0
  1  2  1  0
  2  3  1  0
  3  4  1  0
  3  5  1  0
  5  6  1  0
  6  7  1  0
  7  8  1  0
  7  9  1  0
  9 10  1  0
  9 11  1  0
 11 12  1  0
 11  5  1  0
  1 13  1  0
  2 14  1  0
  2 15  1  0
  3 16  1  1
  4 17  1  0
  5 18  1  6
  6 19  1  0
  7 20  1  1
  8 21  1  0
  9 22  1  6
 10 23  1  0
 11 24  1  1
 12 25  1  0
M  END
$$$$

     RDKit          3D

 25 25  0  0  0  0  0  0  0  0999 V2000
   -3.6927    0.4151    0.1181 O   0  0  0  0  0  0  0  0  0  0  0  0
   -2.4196    0.5383   -0.4700 C   0  0  0  0  0  0  0  0  0  0  0  0
   -1.5274   -0.4888    0.2208 C   0  0  1  0  0  0  0  0  0  0  0  0
   -2.0348   -1.7737    0.0321 O   0  0  0  0  0  0  0  0  0  0  0  0
   -0.1331   -0.4693   -0.3516 C   0  0  2  0  0  0  0  0  0  0  0  0
    0.6543   -1.4495    0.3540 N   0  0  0  0  0  0  0  0  0  0  0  0
    2.0182   -1.0145    0.3125 C   0  0  1  0  0  0  0  0  0  0  0  0
    2.7165   -1.9094   -0.5157 O   0  0  0  0  0  0  0  0  0  0  0  0
    2.0446    0.3907   -0.2209 C   0  0  2  0  0  0  0  0  0  0  0  0
    2.9082    1.2208    0.4925 O   0  0  0  0  0  0  0  0  0  0  0  0
    0.5972    0.8194   -0.0360 C   0  0  1  0  0  0  0  0  0  0  0  0
    0.2358    1.8637   -0.8468 O   0  0  0  0  0  0  0  0  0  0  0  0
   -3.9847    1.2202    0.5730 H   0  0  0  0  0  0  0  0  0  0  0  0
   -2.0795    1.5610   -0.2365 H   0  0  0  0  0  0  0  0  0  0  0  0
   -2.4421    0.3111   -1.5549 H   0  0  0  0  0  0  0  0  0  0  0  0
   -1.4646   -0.2915    1.2992 H   0  0  0  0  0  0  0  0  0  0  0  0
   -2.7511   -1.9213    0.6989 H   0  0  0  0  0  0  0  0  0  0  0  0
   -0.1697   -0.6602   -1.4263 H   0  0  0  0  0  0  0  0  0  0  0  0
    0.3146   -1.5255    1.3510 H   0  0  0  0  0  0  0  0  0  0  0  0
    2.4766   -1.0418    1.3332 H   0  0  0  0  0  0  0  0  0  0  0  0
    3.5454   -1.5335   -0.8705 H   0  0  0  0  0  0  0  0  0  0  0  0
    2.2674    0.4424   -1.3033 H   0  0  0  0  0  0  0  0  0  0  0  0
    2.4213    1.5632    1.2932 H   0  0  0  0  0  0  0  0  0  0  0  0
    0.4456    1.0313    1.0536 H   0  0  0  0  0  0  0  0  0  0  0  0
    0.0535    2.7019   -0.3229 H   0  0  0  0  0  0  0  0  0  0  0  0
  1  2  1  0
  2  3  1  0
  3  4  1  0
  3  5  1  0
  5  6  1  0
  6  7  1  0
  7  8  1  0
  7  9  1  0
  9 10  1  0
  9 11  1  0
 11 12  1  0
 11  5  1  0
  1 13  1  0
  2 14  1  0
  2 15  1  0
  3 16  1  1
  4 17  1  0
  5 18  1  6
  6 19  1  0
  7 20  1  1
  8 21  1  0
  9 22  1  6
 10 23  1  0
 11 24  1  1
 12 25  1  0
M  END
$$$$

     RDKit          3D

 25 25  0  0  0  0  0  0  0  0999 V2000
    2.7475    0.4253   -0.7399 O   0  0  0  0  0  0  0  0  0  0  0  0
    2.5879   -0.5708    0.2221 C   0  0  0  0  0  0  0  0  0  0  0  0
    1.3582   -0.2483    1.0842 C   0  0  1  0  0  0  0  0  0  0  0  0
    1.4802    0.9512    1.7259 O   0  0  0  0  0  0  0  0  0  0  0  0
    0.1699   -0.3567    0.1856 C   0  0  2  0  0  0  0  0  0  0  0  0
    0.1709    0.6337   -0.8757 N   0  0  0  0  0  0  0  0  0  0  0  0
   -1.0980    0.2852   -1.5371 C   0  0  1  0  0  0  0  0  0  0  0  0
   -1.0217   -1.0124   -2.0776 O   0  0  0  0  0  0  0  0  0  0  0  0
   -2.0338    0.2367   -0.3404 C   0  0  2  0  0  0  0  0  0  0  0  0
   -2.6317    1.4754   -0.1838 O   0  0  0  0  0  0  0  0  0  0  0  0
   -1.1391   -0.1132    0.8562 C   0  0  1  0  0  0  0  0  0  0  0  0
   -1.6456   -1.2612    1.4847 O   0  0  0  0  0  0  0  0  0  0  0  0
    3.0170    1.2659   -0.2836 H   0  0  0  0  0  0  0  0  0  0  0  0
    3.4776   -0.7568    0.8229 H   0  0  0  0  0  0  0  0  0  0  0  0
    2.3014   -1.5025   -0.3420 H   0  0  0  0  0  0  0  0  0  0  0  0
    1.2907   -1.0676    1.8289 H   0  0  0  0  0  0  0  0  0  0  0  0
    0.8750    1.6578    1.4281 H   0  0  0  0  0  0  0  0  0  0  0  0
    0.1469   -1.3410   -0.2890 H   0  0  0  0  0  0  0  0  0  0  0  0
   -0.0180    1.5855   -0.4473 H   0  0  0  0  0  0  0  0  0  0  0  0
   -1.3908    1.0316   -2.2811 H   0  0  0  0  0  0  0  0  0  0  0  0
   -1.5644   -1.6563   -1.5512 H   0  0  0  0  0  0  0  0  0  0  0  0
   -2.7838   -0.5732   -0.4844 H   0  0  0  0  0  0  0  0  0  0  0  0
   -2.2368    2.1301   -0.8059 H   0  0  0  0  0  0  0  0  0  0  0  0
   -1.1310    0.7357    1.5692 H   0  0  0  0  0  0  0  0  0  0  0  0
   -0.9288   -1.9541    1.4680 H   0  0  0  0  0  0  0  0  0  0  0  0
  1  2  1  0
  2  3  1  0
  3  4  1  0
  3  5  1  0
  5  6  1  0
  6  7  1  0
  7  8  1  0
  7  9  1  0
  9 10  1  0
  9 11  1  0
 11 12  1  0
 11  5  1  0
  1 13  1  0
  2 14  1  0
  2 15  1  0
  3 16  1  1
  4 17  1  0
  5 18  1  6
  6 19  1  0
  7 20  1  6
  8 21  1  0
  9 22  1  6
 10 23  1  0
 11 24  1  1
 12 25  1  0
M  END
$$$$

     RDKit          3D

 25 25  0  0  0  0  0  0  0  0999 V2000
   -3.2164    0.6756    0.5548 O   0  0  0  0  0  0  0  0  0  0  0  0
   -2.6271   -0.0760   -0.4308 C   0  0  0  0  0  0  0  0  0  0  0  0
   -1.4530   -0.8667    0.1385 C   0  0  1  0  0  0  0  0  0  0  0  0
   -0.8459   -1.6305   -0.8392 O   0  0  0  0  0  0  0  0  0  0  0  0
   -0.4237    0.1554    0.6085 C   0  0  2  0  0  0  0  0  0  0  0  0
   -0.0539    0.9514   -0.5364 N   0  0  0  0  0  0  0  0  0  0  0  0
    1.1726    0.3946   -1.0430 C   0  0  1  0  0  0  0  0  0  0  0  0
    1.8623    1.3475   -1.7970 O   0  0  0  0  0  0  0  0  0  0  0  0
    1.9179    0.0476    0.2208 C   0  0  2  0  0  0  0  0  0  0  0  0
    2.8554   -0.9459   -0.0645 O   0  0  0  0  0  0  0  0  0  0  0  0
    0.8296   -0.4862    1.1089 C   0  0  1  0  0  0  0  0  0  0  0  0
    1.1355   -0.0819    2.4223 O   0  0  0  0  0  0  0  0  0  0  0  0
   -2.7480    1.4814    0.8182 H   0  0  0  0  0  0  0  0  0  0  0  0
   -3.3363   -0.6955   -0.9764 H   0  0  0  0  0  0  0  0  0  0  0  0
   -2.1846    0.6434   -1.1764 H   0  0  0  0  0  0  0  0  0  0  0  0
   -1.7824   -1.4848    0.9983 H   0  0  0  0  0  0  0  0  0  0  0  0
   -1.5298   -2.1663   -1.2881 H   0  0  0  0  0  0  0  0  0  0  0  0
   -0.9073    0.7984    1.3799 H   0  0  0  0  0  0  0  0  0  0  0  0
    0.0813    1.9406   -0.3127 H   0  0  0  0  0  0  0  0  0  0  0  0
    1.0413   -0.5132   -1.6483 H   0  0  0  0  0  0  0  0  0  0  0  0
    2.4516    0.8378   -2.4169 H   0  0  0  0  0  0  0  0  0  0  0  0
    2.3888    0.9729    0.6194 H   0  0  0  0  0  0  0  0  0  0  0  0
    3.7412   -0.5540    0.0263 H   0  0  0  0  0  0  0  0  0  0  0  0
    0.7878   -1.5913    1.0699 H   0  0  0  0  0  0  0  0  0  0  0  0
    0.8433    0.8458    2.5639 H   0  0  0  0  0  0  0  0  0  0  0  0
  1  2  1  0
  2  3  1  0
  3  4  1  0
  3  5  1  0
  5  6  1  0
  6  7  1  0
  7  8  1  0
  7  9  1  0
  9 10  1  0
  9 11  1  0
 11 12  1  0
 11  5  1  0
  1 13  1  0
  2 14  1  0
  2 15  1  0
  3 16  1  1
  4 17  1  0
  5 18  1  1
  6 19  1  0
  7 20  1  6
  8 21  1  0
  9 22  1  1
 10 23  1  0
 11 24  1  1
 12 25  1  0
M  END
$$$$

     RDKit          3D

 25 25  0  0  0  0  0  0  0  0999 V2000
    3.0073   -0.3151    2.0493 O   0  0  0  0  0  0  0  0  0  0  0  0
    1.6965   -0.3061    1.5605 C   0  0  0  0  0  0  0  0  0  0  0  0
    1.7146    0.2864    0.1993 C   0  0  1  0  0  0  0  0  0  0  0  0
    2.5345   -0.4956   -0.6092 O   0  0  0  0  0  0  0  0  0  0  0  0
    0.3704    0.4500   -0.4274 C   0  0  2  0  0  0  0  0  0  0  0  0
   -0.5512    1.2374    0.3202 N   0  0  0  0  0  0  0  0  0  0  0  0
   -1.8929    0.7896   -0.0111 C   0  0  1  0  0  0  0  0  0  0  0  0
   -2.6105    1.7078   -0.7390 O   0  0  0  0  0  0  0  0  0  0  0  0
   -1.7074   -0.4544   -0.8850 C   0  0  2  0  0  0  0  0  0  0  0  0
   -2.6861   -1.4026   -0.6256 O   0  0  0  0  0  0  0  0  0  0  0  0
   -0.3357   -0.9121   -0.4230 C   0  0  1  0  0  0  0  0  0  0  0  0
    0.2529   -1.8036   -1.2840 O   0  0  0  0  0  0  0  0  0  0  0  0
    3.5870    0.3473    1.5955 H   0  0  0  0  0  0  0  0  0  0  0  0
    1.0568    0.2325    2.2831 H   0  0  0  0  0  0  0  0  0  0  0  0
    1.3827   -1.3711    1.5106 H   0  0  0  0  0  0  0  0  0  0  0  0
    2.2050    1.2927    0.2622 H   0  0  0  0  0  0  0  0  0  0  0  0
    2.8693   -0.0237   -1.4022 H   0  0  0  0  0  0  0  0  0  0  0  0
    0.4017    0.7682   -1.4745 H   0  0  0  0  0  0  0  0  0  0  0  0
   -0.4585    2.2582    0.1375 H   0  0  0  0  0  0  0  0  0  0  0  0
   -2.3956    0.4844    0.9430 H   0  0  0  0  0  0  0  0  0  0  0  0
   -3.1760    2.3153   -0.1817 H   0  0  0  0  0  0  0  0  0  0  0  0
   -1.6559   -0.1576   -1.9407 H   0  0  0  0  0  0  0  0  0  0  0  0
   -3.5721   -0.9912   -0.6757 H   0  0  0  0  0  0  0  0  0  0  0  0
   -0.4438   -1.2799    0.6058 H   0  0  0  0  0  0  0  0  0  0  0  0
    0.4071   -2.6569   -0.7879 H   0  0  0  0  0  0  0  0  0  0  0  0
  1  2  1  0
  2  3  1  0
  3  4  1  0
  3  5  1  0
  5  6  1  0
  6  7  1  0
  7  8  1  0
  7  9  1  0
  9 10  1  0
  9 11  1  0
 11 12  1  0
 11  5  1  0
  1 13  1  0
  2 14  1  0
  2 15  1  0
  3 16  1  1
  4 17  1  0
  5 18  1  6
  6 19  1  0
  7 20  1  1
  8 21  1  0
  9 22  1  6
 10 23  1  0
 11 24  1  1
 12 25  1  0
M  END
$$$$

     RDKit          3D

 25 25  0  0  0  0  0  0  0  0999 V2000
    3.0277   -1.2625   -0.1428 O   0  0  0  0  0  0  0  0  0  0  0  0
    2.4122   -0.3958    0.7394 C   0  0  0  0  0  0  0  0  0  0  0  0
    1.4371    0.5319    0.1018 C   0  0  1  0  0  0  0  0  0  0  0  0
    2.1260    1.2979   -0.8445 O   0  0  0  0  0  0  0  0  0  0  0  0
    0.2845   -0.1146   -0.5758 C   0  0  2  0  0  0  0  0  0  0  0  0
   -0.5726    0.9239   -1.1137 N   0  0  0  0  0  0  0  0  0  0  0  0
   -1.6478    1.1087   -0.1678 C   0  0  1  0  0  0  0  0  0  0  0  0
   -2.8299    1.4405   -0.7982 O   0  0  0  0  0  0  0  0  0  0  0  0
   -1.7376   -0.1282    0.6675 C   0  0  2  0  0  0  0  0  0  0  0  0
   -1.6249    0.1628    2.0315 O   0  0  0  0  0  0  0  0  0  0  0  0
   -0.5600   -0.9864    0.2703 C   0  0  1  0  0  0  0  0  0  0  0  0
   -1.0637   -2.0473   -0.5069 O   0  0  0  0  0  0  0  0  0  0  0  0
    2.5868   -1.3491   -1.0028 H   0  0  0  0  0  0  0  0  0  0  0  0
    3.2147    0.2274    1.1942 H   0  0  0  0  0  0  0  0  0  0  0  0
    1.9916   -0.9980    1.5642 H   0  0  0  0  0  0  0  0  0  0  0  0
    1.0605    1.2253    0.8720 H   0  0  0  0  0  0  0  0  0  0  0  0
    1.9623    0.9900   -1.7715 H   0  0  0  0  0  0  0  0  0  0  0  0
    0.6720   -0.6891   -1.4635 H   0  0  0  0  0  0  0  0  0  0  0  0
   -0.0366    1.8354   -1.2377 H   0  0  0  0  0  0  0  0  0  0  0  0
   -1.3844    1.9640    0.5103 H   0  0  0  0  0  0  0  0  0  0  0  0
   -3.3279    0.6627   -1.1548 H   0  0  0  0  0  0  0  0  0  0  0  0
   -2.6945   -0.6465    0.4824 H   0  0  0  0  0  0  0  0  0  0  0  0
   -1.7721   -0.6540    2.5567 H   0  0  0  0  0  0  0  0  0  0  0  0
   -0.0964   -1.4182    1.1490 H   0  0  0  0  0  0  0  0  0  0  0  0
   -1.4271   -1.6807   -1.3595 H   0  0  0  0  0  0  0  0  0  0  0  0
  1  2  1  0
  2  3  1  0
  3  4  1  0
  3  5  1  0
  5  6  1  0
  6  7  1  0
  7  8  1  0
  7  9  1  0
  9 10  1  0
  9 11  1  0
 11 12  1  0
 11  5  1  0
  1 13  1  0
  2 14  1  0
  2 15  1  0
  3 16  1  1
  4 17  1  0
  5 18  1  6
  6 19  1  0
  7 20  1  1
  8 21  1  0
  9 22  1  1
 10 23  1  0
 11 24  1  1
 12 25  1  0
M  END
$$$$

     RDKit          3D

 25 25  0  0  0  0  0  0  0  0999 V2000
    2.6033    0.7871    0.9602 O   0  0  0  0  0  0  0  0  0  0  0  0
    2.3233    0.8659   -0.3973 C   0  0  0  0  0  0  0  0  0  0  0  0
    1.5789   -0.4074   -0.7683 C   0  0  1  0  0  0  0  0  0  0  0  0
    2.3471   -1.5155   -0.5075 O   0  0  0  0  0  0  0  0  0  0  0  0
    0.3034   -0.4185    0.0382 C   0  0  2  0  0  0  0  0  0  0  0  0
   -0.5195   -1.5791   -0.2453 N   0  0  0  0  0  0  0  0  0  0  0  0
   -1.7935   -1.1510    0.3485 C   0  0  1  0  0  0  0  0  0  0  0  0
   -1.6199   -0.9692    1.6987 O   0  0  0  0  0  0  0  0  0  0  0  0
   -1.9838    0.1885   -0.3455 C   0  0  2  0  0  0  0  0  0  0  0  0
   -2.3854   -0.0341   -1.6454 O   0  0  0  0  0  0  0  0  0  0  0  0
   -0.5627    0.7520   -0.2932 C   0  0  1  0  0  0  0  0  0  0  0  0
   -0.4667    1.7146    0.7323 O   0  0  0  0  0  0  0  0  0  0  0  0
    3.2704    0.0716    1.0839 H   0  0  0  0  0  0  0  0  0  0  0  0
    3.1971    1.0502   -1.0257 H   0  0  0  0  0  0  0  0  0  0  0  0
    1.6280    1.7352   -0.5268 H   0  0  0  0  0  0  0  0  0  0  0  0
    1.3156   -0.3377   -1.8322 H   0  0  0  0  0  0  0  0  0  0  0  0
    2.3417   -1.6942    0.4569 H   0  0  0  0  0  0  0  0  0  0  0  0
    0.4878   -0.4132    1.1268 H   0  0  0  0  0  0  0  0  0  0  0  0
   -0.6258   -1.7556   -1.2563 H   0  0  0  0  0  0  0  0  0  0  0  0
   -2.6017   -1.8559    0.1610 H   0  0  0  0  0  0  0  0  0  0  0  0
   -1.5302   -0.0156    1.9591 H   0  0  0  0  0  0  0  0  0  0  0  0
   -2.7027    0.8377    0.1729 H   0  0  0  0  0  0  0  0  0  0  0  0
   -3.2303    0.4316   -1.8693 H   0  0  0  0  0  0  0  0  0  0  0  0
   -0.3157    1.2328   -1.2559 H   0  0  0  0  0  0  0  0  0  0  0  0
   -1.0588    2.4796    0.5696 H   0  0  0  0  0  0  0  0  0  0  0  0
  1  2  1  0
  2  3  1  0
  3  4  1  0
  3  5  1  0
  5  6  1  0
  6  7  1  0
  7  8  1  0
  7  9  1  0
  9 10  1  0
  9 11  1  0
 11 12  1  0
 11  5  1  0
  1 13  1  0
  2 14  1  0
  2 15  1  0
  3 16  1  6
  4 17  1  0
  5 18  1  1
  6 19  1  0
  7 20  1  1
  8 21  1  0
  9 22  1  1
 10 23  1  0
 11 24  1  6
 12 25  1  0
M  END
$$$$
