
     RDKit          3D

 27 27  0  0  0  0  0  0  0  0999 V2000
    3.6224    0.7905    0.1705 C   0  0  0  0  0  0  0  0  0  0  0  0
    2.3206    0.4603   -0.1141 O   0  0  0  0  0  0  0  0  0  0  0  0
    2.0167   -0.8739    0.0224 C   0  0  0  0  0  0  0  0  0  0  0  0
    0.7675   -1.0711    0.8725 C   0  0  0  0  0  0  0  0  0  0  0  0
    0.0371   -1.2427   -0.3326 N   0  0  0  0  0  0  0  0  0  0  0  0
   -0.8573   -0.2385   -0.7756 C   0  0  0  0  0  0  0  0  0  0  0  0
   -2.0725   -0.1725    0.1173 C   0  0  1  0  0  0  0  0  0  0  0  0
   -1.7810    0.0944    1.4470 O   0  0  0  0  0  0  0  0  0  0  0  0
   -3.0775    0.8544   -0.3822 C   0  0  0  0  0  0  0  0  0  0  0  0
   -2.5009    2.1921   -0.2381 N   0  0  0  0  0  0  0  0  0  0  0  0
    1.2024   -1.4103   -1.1532 C   0  0  0  0  0  0  0  0  0  0  0  0
    3.9599    0.5733    1.1919 H   0  0  0  0  0  0  0  0  0  0  0  0
    4.2755    0.1711   -0.5000 H   0  0  0  0  0  0  0  0  0  0  0  0
    3.7854    1.8621   -0.1227 H   0  0  0  0  0  0  0  0  0  0  0  0
    2.8318   -1.5256    0.3429 H   0  0  0  0  0  0  0  0  0  0  0  0
    0.4878   -0.1991    1.4639 H   0  0  0  0  0  0  0  0  0  0  0  0
    0.8704   -1.9707    1.5145 H   0  0  0  0  0  0  0  0  0  0  0  0
   -1.2476   -0.4993   -1.8000 H   0  0  0  0  0  0  0  0  0  0  0  0
   -0.3557    0.7420   -0.8099 H   0  0  0  0  0  0  0  0  0  0  0  0
   -2.6180   -1.1625    0.1030 H   0  0  0  0  0  0  0  0  0  0  0  0
   -1.7795   -0.7675    1.9745 H   0  0  0  0  0  0  0  0  0  0  0  0
   -3.2520    0.7068   -1.4832 H   0  0  0  0  0  0  0  0  0  0  0  0
   -4.0076    0.7663    0.1719 H   0  0  0  0  0  0  0  0  0  0  0  0
   -2.0938    2.2484    0.7141 H   0  0  0  0  0  0  0  0  0  0  0  0
   -3.2053    2.9341   -0.4388 H   0  0  0  0  0  0  0  0  0  0  0  0
    1.2578   -0.7776   -2.0664 H   0  0  0  0  0  0  0  0  0  0  0  0
    1.4135   -2.4847   -1.3601 H   0  0  0  0  0  0  0  0  0  0  0  0
  1  2  1  0
  2  3  1  0
  3  4  1  0
  4  5  1  0
  5  6  1  0
  6  7  1  0
  7  8  1  0
  7  9  1  0
  9 10  1  0
  5 11  1  0
 11  3  1  0
  1 12  1  0
  1 13  1  0
  1 14  1  0
  3 15  1  0
  4 16  1  0
  4 17  1  0
  6 18  1  0
  6 19  1  0
  7 20  1  1
  8 21  1  0
  9 22  1  0
  9 23  1  0
 10 24  1  0
 10 25  1  0
 11 26  1  0
 11 27  1  0
M  END
$$$$

     RDKit          3D

 27 27  0  0  0  0  0  0  0  0999 V2000
   -4.2258    0.6149    0.0495 C   0  0  0  0  0  0  0  0  0  0  0  0
   -3.0201    0.2271    0.6439 O   0  0  0  0  0  0  0  0  0  0  0  0
   -2.0844    0.0084   -0.3587 C   0  0  0  0  0  0  0  0  0  0  0  0
   -1.3684   -1.2806   -0.1438 C   0  0  0  0  0  0  0  0  0  0  0  0
   -0.2544   -0.5908    0.5300 N   0  0  0  0  0  0  0  0  0  0  0  0
    0.9715   -1.1533    0.0716 C   0  0  0  0  0  0  0  0  0  0  0  0
    2.2046   -0.5624    0.6686 C   0  0  1  0  0  0  0  0  0  0  0  0
    3.3178   -1.2316    0.1090 O   0  0  0  0  0  0  0  0  0  0  0  0
    2.3610    0.8923    0.2357 C   0  0  0  0  0  0  0  0  0  0  0  0
    3.6124    1.4406    0.7355 N   0  0  0  0  0  0  0  0  0  0  0  0
   -0.7147    0.6191   -0.0688 C   0  0  0  0  0  0  0  0  0  0  0  0
   -5.0055    0.8013    0.8167 H   0  0  0  0  0  0  0  0  0  0  0  0
   -4.5205   -0.2081   -0.6536 H   0  0  0  0  0  0  0  0  0  0  0  0
   -4.0915    1.5522   -0.5143 H   0  0  0  0  0  0  0  0  0  0  0  0
   -2.4719    0.1786   -1.3612 H   0  0  0  0  0  0  0  0  0  0  0  0
   -1.0668   -1.7172   -1.1282 H   0  0  0  0  0  0  0  0  0  0  0  0
   -1.8327   -2.0301    0.5004 H   0  0  0  0  0  0  0  0  0  0  0  0
    1.0569   -1.0815   -1.0468 H   0  0  0  0  0  0  0  0  0  0  0  0
    0.9413   -2.2447    0.2835 H   0  0  0  0  0  0  0  0  0  0  0  0
    2.2666   -0.6293    1.7526 H   0  0  0  0  0  0  0  0  0  0  0  0
    3.1228   -2.1972    0.2495 H   0  0  0  0  0  0  0  0  0  0  0  0
    2.3928    0.9814   -0.8671 H   0  0  0  0  0  0  0  0  0  0  0  0
    1.5098    1.5098    0.6071 H   0  0  0  0  0  0  0  0  0  0  0  0
    4.4290    1.1875    0.1577 H   0  0  0  0  0  0  0  0  0  0  0  0
    3.5578    2.4849    0.7591 H   0  0  0  0  0  0  0  0  0  0  0  0
   -0.8856    1.4607    0.6658 H   0  0  0  0  0  0  0  0  0  0  0  0
   -0.2018    0.9680   -0.9835 H   0  0  0  0  0  0  0  0  0  0  0  0
  1  2  1  0
  2  3  1  0
  3  4  1  0
  4  5  1  0
  5  6  1  0
  6  7  1  0
  7  8  1  0
  7  9  1  0
  9 10  1  0
  5 11  1  0
 11  3  1  0
  1 12  1  0
  1 13  1  0
  1 14  1  0
  3 15  1  0
  4 16  1  0
  4 17  1  0
  6 18  1  0
  6 19  1  0
  7 20  1  1
  8 21  1  0
  9 22  1  0
  9 23  1  0
 10 24  1  0
 10 25  1  0
 11 26  1  0
 11 27  1  0
M  END
$$$$

     RDKit          3D

 27 27  0  0  0  0  0  0  0  0999 V2000
    4.2300    0.4594    0.0266 C   0  0  0  0  0  0  0  0  0  0  0  0
    3.2613   -0.2731    0.7393 O   0  0  0  0  0  0  0  0  0  0  0  0
    2.1175   -0.2767   -0.0245 C   0  0  0  0  0  0  0  0  0  0  0  0
    1.4020   -1.5803   -0.1692 C   0  0  0  0  0  0  0  0  0  0  0  0
    0.2078   -0.9746    0.3648 N   0  0  0  0  0  0  0  0  0  0  0  0
   -0.8495   -0.6986   -0.5675 C   0  0  0  0  0  0  0  0  0  0  0  0
   -2.0132   -0.1408    0.2221 C   0  0  1  0  0  0  0  0  0  0  0  0
   -1.7027    1.0251    0.9104 O   0  0  0  0  0  0  0  0  0  0  0  0
   -3.1672    0.2180   -0.6986 C   0  0  0  0  0  0  0  0  0  0  0  0
   -4.2724    0.6713    0.1307 N   0  0  0  0  0  0  0  0  0  0  0  0
    0.9439    0.1845    0.8232 C   0  0  0  0  0  0  0  0  0  0  0  0
    5.1744    0.4829    0.6333 H   0  0  0  0  0  0  0  0  0  0  0  0
    4.4284   -0.0265   -0.9605 H   0  0  0  0  0  0  0  0  0  0  0  0
    3.9381    1.5039   -0.1477 H   0  0  0  0  0  0  0  0  0  0  0  0
    2.1943    0.2816   -0.9915 H   0  0  0  0  0  0  0  0  0  0  0  0
    1.3407   -1.9801   -1.1894 H   0  0  0  0  0  0  0  0  0  0  0  0
    1.7394   -2.3899    0.5160 H   0  0  0  0  0  0  0  0  0  0  0  0
   -0.4811    0.1047   -1.2629 H   0  0  0  0  0  0  0  0  0  0  0  0
   -1.1264   -1.5388   -1.1996 H   0  0  0  0  0  0  0  0  0  0  0  0
   -2.3088   -0.9273    0.9502 H   0  0  0  0  0  0  0  0  0  0  0  0
   -1.8399    1.8136    0.3391 H   0  0  0  0  0  0  0  0  0  0  0  0
   -2.8085    1.0874   -1.2976 H   0  0  0  0  0  0  0  0  0  0  0  0
   -3.4199   -0.6347   -1.3302 H   0  0  0  0  0  0  0  0  0  0  0  0
   -3.9838    0.7468    1.1114 H   0  0  0  0  0  0  0  0  0  0  0  0
   -4.6454    1.5627   -0.2588 H   0  0  0  0  0  0  0  0  0  0  0  0
    1.0811    0.1228    1.9134 H   0  0  0  0  0  0  0  0  0  0  0  0
    0.5599    1.1767    0.5223 H   0  0  0  0  0  0  0  0  0  0  0  0
  1  2  1  0
  2  3  1  0
  3  4  1  0
  4  5  1  0
  5  6  1  0
  6  7  1  0
  7  8  1  0
  7  9  1  0
  9 10  1  0
  5 11  1  0
 11  3  1  0
  1 12  1  0
  1 13  1  0
  1 14  1  0
  3 15  1  0
  4 16  1  0
  4 17  1  0
  6 18  1  0
  6 19  1  0
  7 20  1  1
  8 21  1  0
  9 22  1  0
  9 23  1  0
 10 24  1  0
 10 25  1  0
 11 26  1  0
 11 27  1  0
M  END
$$$$

     RDKit          3D

 27 27  0  0  0  0  0  0  0  0999 V2000
    4.4153   -0.5958    0.2078 C   0  0  0  0  0  0  0  0  0  0  0  0
    3.0990   -0.7045   -0.2452 O   0  0  0  0  0  0  0  0  0  0  0  0
    2.2731    0.2371    0.3449 C   0  0  0  0  0  0  0  0  0  0  0  0
    1.4060    0.9909   -0.6087 C   0  0  0  0  0  0  0  0  0  0  0  0
    0.2615    0.7126    0.2322 N   0  0  0  0  0  0  0  0  0  0  0  0
   -0.8635    0.3250   -0.5771 C   0  0  0  0  0  0  0  0  0  0  0  0
   -2.0941    0.0190    0.2289 C   0  0  1  0  0  0  0  0  0  0  0  0
   -2.5276    1.0950    0.9796 O   0  0  0  0  0  0  0  0  0  0  0  0
   -3.1787   -0.3864   -0.7788 C   0  0  0  0  0  0  0  0  0  0  0  0
   -4.4012   -0.7616   -0.0813 N   0  0  0  0  0  0  0  0  0  0  0  0
    0.9704   -0.3314    0.9028 C   0  0  0  0  0  0  0  0  0  0  0  0
    4.4812   -0.7447    1.3151 H   0  0  0  0  0  0  0  0  0  0  0  0
    4.8129    0.4040   -0.0083 H   0  0  0  0  0  0  0  0  0  0  0  0
    4.9962   -1.4066   -0.2918 H   0  0  0  0  0  0  0  0  0  0  0  0
    2.7739    0.9147    1.0681 H   0  0  0  0  0  0  0  0  0  0  0  0
    1.3772    0.5388   -1.6132 H   0  0  0  0  0  0  0  0  0  0  0  0
    1.5644    2.0849   -0.6599 H   0  0  0  0  0  0  0  0  0  0  0  0
   -0.6619   -0.4807   -1.2826 H   0  0  0  0  0  0  0  0  0  0  0  0
   -1.1157    1.2303   -1.2044 H   0  0  0  0  0  0  0  0  0  0  0  0
   -1.9192   -0.8287    0.9185 H   0  0  0  0  0  0  0  0  0  0  0  0
   -2.2545    1.9668    0.5695 H   0  0  0  0  0  0  0  0  0  0  0  0
   -3.3515    0.4910   -1.4363 H   0  0  0  0  0  0  0  0  0  0  0  0
   -2.8327   -1.2704   -1.3475 H   0  0  0  0  0  0  0  0  0  0  0  0
   -4.5938   -0.1372    0.7333 H   0  0  0  0  0  0  0  0  0  0  0  0
   -4.2896   -1.7655    0.1992 H   0  0  0  0  0  0  0  0  0  0  0  0
    0.7705   -1.3685    0.5653 H   0  0  0  0  0  0  0  0  0  0  0  0
    0.8824   -0.2281    2.0014 H   0  0  0  0  0  0  0  0  0  0  0  0
  1  2  1  0
  2  3  1  0
  3  4  1  0
  4  5  1  0
  5  6  1  0
  6  7  1  0
  7  8  1  0
  7  9  1  0
  9 10  1  0
  5 11  1  0
 11  3  1  0
  1 12  1  0
  1 13  1  0
  1 14  1  0
  3 15  1  0
  4 16  1  0
  4 17  1  0
  6 18  1  0
  6 19  1  0
  7 20  1  1
  8 21  1  0
  9 22  1  0
  9 23  1  0
 10 24  1  0
 10 25  1  0
 11 26  1  0
 11 27  1  0
M  END
$$$$

     RDKit          3D

 27 27  0  0  0  0  0  0  0  0999 V2000
   -4.0933    0.6419    0.1394 C   0  0  0  0  0  0  0  0  0  0  0  0
   -2.7192    0.5872   -0.0982 O   0  0  0  0  0  0  0  0  0  0  0  0
   -2.1977   -0.6896   -0.0150 C   0  0  0  0  0  0  0  0  0  0  0  0
   -0.9189   -0.7539    0.7995 C   0  0  0  0  0  0  0  0  0  0  0  0
   -0.2013   -0.9077   -0.4245 N   0  0  0  0  0  0  0  0  0  0  0  0
    0.7346    0.1119   -0.7782 C   0  0  0  0  0  0  0  0  0  0  0  0
    1.9000    0.0306    0.1916 C   0  0  1  0  0  0  0  0  0  0  0  0
    2.4655   -1.2547    0.0357 O   0  0  0  0  0  0  0  0  0  0  0  0
    2.9410    1.0785   -0.0884 C   0  0  0  0  0  0  0  0  0  0  0  0
    4.0460    0.8991    0.8280 N   0  0  0  0  0  0  0  0  0  0  0  0
   -1.3619   -1.0906   -1.2236 C   0  0  0  0  0  0  0  0  0  0  0  0
   -4.3719    1.7192    0.0441 H   0  0  0  0  0  0  0  0  0  0  0  0
   -4.3057    0.2949    1.1550 H   0  0  0  0  0  0  0  0  0  0  0  0
   -4.6256    0.0350   -0.6355 H   0  0  0  0  0  0  0  0  0  0  0  0
   -2.9553   -1.4276    0.2466 H   0  0  0  0  0  0  0  0  0  0  0  0
   -0.7331    0.1525    1.3977 H   0  0  0  0  0  0  0  0  0  0  0  0
   -0.9387   -1.6443    1.4653 H   0  0  0  0  0  0  0  0  0  0  0  0
    1.1816   -0.0462   -1.7904 H   0  0  0  0  0  0  0  0  0  0  0  0
    0.2733    1.1226   -0.7705 H   0  0  0  0  0  0  0  0  0  0  0  0
    1.5207    0.0931    1.2217 H   0  0  0  0  0  0  0  0  0  0  0  0
    3.1472   -1.2557   -0.6809 H   0  0  0  0  0  0  0  0  0  0  0  0
    2.5471    2.1092    0.0326 H   0  0  0  0  0  0  0  0  0  0  0  0
    3.3009    0.9725   -1.1204 H   0  0  0  0  0  0  0  0  0  0  0  0
    4.3997    1.7824    1.2488 H   0  0  0  0  0  0  0  0  0  0  0  0
    3.9694    0.0994    1.4614 H   0  0  0  0  0  0  0  0  0  0  0  0
   -1.5266   -2.1774   -1.4429 H   0  0  0  0  0  0  0  0  0  0  0  0
   -1.4777   -0.4824   -2.1185 H   0  0  0  0  0  0  0  0  0  0  0  0
  1  2  1  0
  2  3  1  0
  3  4  1  0
  4  5  1  0
  5  6  1  0
  6  7  1  0
  7  8  1  0
  7  9  1  0
  9 10  1  0
  5 11  1  0
 11  3  1  0
  1 12  1  0
  1 13  1  0
  1 14  1  0
  3 15  1  0
  4 16  1  0
  4 17  1  0
  6 18  1  0
  6 19  1  0
  7 20  1  1
  8 21  1  0
  9 22  1  0
  9 23  1  0
 10 24  1  0
 10 25  1  0
 11 26  1  0
 11 27  1  0
M  END
$$$$

     RDKit          3D

 27 27  0  0  0  0  0  0  0  0999 V2000
    4.2616    0.7512    0.0151 C   0  0  0  0  0  0  0  0  0  0  0  0
    3.2072    0.0207   -0.5671 O   0  0  0  0  0  0  0  0  0  0  0  0
    2.0709    0.0796    0.2282 C   0  0  0  0  0  0  0  0  0  0  0  0
    0.8029    0.4406   -0.5207 C   0  0  0  0  0  0  0  0  0  0  0  0
    0.1187   -0.4978    0.3493 N   0  0  0  0  0  0  0  0  0  0  0  0
   -1.0038   -1.1700   -0.2589 C   0  0  0  0  0  0  0  0  0  0  0  0
   -2.1365   -0.1848   -0.5229 C   0  0  1  0  0  0  0  0  0  0  0  0
   -3.2052   -0.8473   -1.1080 O   0  0  0  0  0  0  0  0  0  0  0  0
   -2.6543    0.3866    0.7942 C   0  0  0  0  0  0  0  0  0  0  0  0
   -3.7346    1.2906    0.5683 N   0  0  0  0  0  0  0  0  0  0  0  0
    1.3512   -1.2446    0.3960 C   0  0  0  0  0  0  0  0  0  0  0  0
    5.1560    0.6855   -0.6378 H   0  0  0  0  0  0  0  0  0  0  0  0
    3.9360    1.8329   -0.0267 H   0  0  0  0  0  0  0  0  0  0  0  0
    4.4947    0.4331    1.0388 H   0  0  0  0  0  0  0  0  0  0  0  0
    2.1469    0.6606    1.1586 H   0  0  0  0  0  0  0  0  0  0  0  0
    0.4946    1.4929   -0.3574 H   0  0  0  0  0  0  0  0  0  0  0  0
    0.8747    0.1149   -1.5659 H   0  0  0  0  0  0  0  0  0  0  0  0
   -0.7507   -1.7010   -1.1806 H   0  0  0  0  0  0  0  0  0  0  0  0
   -1.3906   -1.9053    0.4738 H   0  0  0  0  0  0  0  0  0  0  0  0
   -1.8201    0.6418   -1.1797 H   0  0  0  0  0  0  0  0  0  0  0  0
   -2.9825   -1.7823   -1.3333 H   0  0  0  0  0  0  0  0  0  0  0  0
   -1.7989    0.8772    1.3123 H   0  0  0  0  0  0  0  0  0  0  0  0
   -2.9689   -0.4654    1.4437 H   0  0  0  0  0  0  0  0  0  0  0  0
   -3.7555    2.0108    1.2972 H   0  0  0  0  0  0  0  0  0  0  0  0
   -3.7506    1.6760   -0.3841 H   0  0  0  0  0  0  0  0  0  0  0  0
    1.5671   -1.8930   -0.4667 H   0  0  0  0  0  0  0  0  0  0  0  0
    1.4695   -1.7034    1.3944 H   0  0  0  0  0  0  0  0  0  0  0  0
  1  2  1  0
  2  3  1  0
  3  4  1  0
  4  5  1  0
  5  6  1  0
  6  7  1  0
  7  8  1  0
  7  9  1  0
  9 10  1  0
  5 11  1  0
 11  3  1  0
  1 12  1  0
  1 13  1  0
  1 14  1  0
  3 15  1  0
  4 16  1  0
  4 17  1  0
  6 18  1  0
  6 19  1  0
  7 20  1  6
  8 21  1  0
  9 22  1  0
  9 23  1  0
 10 24  1  0
 10 25  1  0
 11 26  1  0
 11 27  1  0
M  END
$$$$

     RDKit          3D

 27 27  0  0  0  0  0  0  0  0999 V2000
   -4.4664   -0.3972   -0.1895 C   0  0  0  0  0  0  0  0  0  0  0  0
   -3.2628   -0.0333    0.4081 O   0  0  0  0  0  0  0  0  0  0  0  0
   -2.1856   -0.1619   -0.4311 C   0  0  0  0  0  0  0  0  0  0  0  0
   -1.2713    1.0669   -0.4021 C   0  0  0  0  0  0  0  0  0  0  0  0
   -0.1570    0.1627   -0.3961 N   0  0  0  0  0  0  0  0  0  0  0  0
    0.9833    0.5410    0.3829 C   0  0  0  0  0  0  0  0  0  0  0  0
    2.0188   -0.5539    0.2373 C   0  0  1  0  0  0  0  0  0  0  0  0
    2.3924   -0.7139   -1.0941 O   0  0  0  0  0  0  0  0  0  0  0  0
    3.2284   -0.2807    1.1053 C   0  0  0  0  0  0  0  0  0  0  0  0
    3.8749    0.9338    0.6453 N   0  0  0  0  0  0  0  0  0  0  0  0
   -0.9880   -0.8588    0.2165 C   0  0  0  0  0  0  0  0  0  0  0  0
   -5.2663   -0.2571    0.5681 H   0  0  0  0  0  0  0  0  0  0  0  0
   -4.6906    0.3323   -1.0119 H   0  0  0  0  0  0  0  0  0  0  0  0
   -4.4823   -1.4358   -0.5327 H   0  0  0  0  0  0  0  0  0  0  0  0
   -2.3994   -0.5268   -1.4455 H   0  0  0  0  0  0  0  0  0  0  0  0
   -1.3751    1.5961   -1.3616 H   0  0  0  0  0  0  0  0  0  0  0  0
   -1.4113    1.7095    0.4686 H   0  0  0  0  0  0  0  0  0  0  0  0
    1.3713    1.5334    0.1832 H   0  0  0  0  0  0  0  0  0  0  0  0
    0.6588    0.5338    1.4612 H   0  0  0  0  0  0  0  0  0  0  0  0
    1.5649   -1.5136    0.5553 H   0  0  0  0  0  0  0  0  0  0  0  0
    2.5367    0.1191   -1.5743 H   0  0  0  0  0  0  0  0  0  0  0  0
    2.9385   -0.1742    2.1562 H   0  0  0  0  0  0  0  0  0  0  0  0
    3.9533   -1.1109    1.0078 H   0  0  0  0  0  0  0  0  0  0  0  0
    4.8737    0.7657    0.4168 H   0  0  0  0  0  0  0  0  0  0  0  0
    3.3719    1.3269   -0.1582 H   0  0  0  0  0  0  0  0  0  0  0  0
   -0.7575   -1.8465   -0.1844 H   0  0  0  0  0  0  0  0  0  0  0  0
   -1.0532   -0.7567    1.3181 H   0  0  0  0  0  0  0  0  0  0  0  0
  1  2  1  0
  2  3  1  0
  3  4  1  0
  4  5  1  0
  5  6  1  0
  6  7  1  0
  7  8  1  0
  7  9  1  0
  9 10  1  0
  5 11  1  0
 11  3  1  0
  1 12  1  0
  1 13  1  0
  1 14  1  0
  3 15  1  0
  4 16  1  0
  4 17  1  0
  6 18  1  0
  6 19  1  0
  7 20  1  1
  8 21  1  0
  9 22  1  0
  9 23  1  0
 10 24  1  0
 10 25  1  0
 11 26  1  0
 11 27  1  0
M  END
$$$$

     RDKit          3D

 27 27  0  0  0  0  0  0  0  0999 V2000
    4.1300    1.5086   -0.3512 C   0  0  0  0  0  0  0  0  0  0  0  0
    2.7700    1.3664   -0.4540 O   0  0  0  0  0  0  0  0  0  0  0  0
    2.2192    0.3071    0.1895 C   0  0  0  0  0  0  0  0  0  0  0  0
    1.3056   -0.5779   -0.6809 C   0  0  0  0  0  0  0  0  0  0  0  0
    0.5526   -0.7800    0.5319 N   0  0  0  0  0  0  0  0  0  0  0  0
   -0.7812   -1.1803    0.4858 C   0  0  0  0  0  0  0  0  0  0  0  0
   -1.8109   -0.2530   -0.0295 C   0  0  1  0  0  0  0  0  0  0  0  0
   -1.5315    0.0835   -1.3501 O   0  0  0  0  0  0  0  0  0  0  0  0
   -3.1505   -1.0005   -0.0609 C   0  0  0  0  0  0  0  0  0  0  0  0
   -4.1989   -0.1387   -0.6140 N   0  0  0  0  0  0  0  0  0  0  0  0
    0.8883    0.5651    0.8946 C   0  0  0  0  0  0  0  0  0  0  0  0
    4.5018    2.4069   -0.9122 H   0  0  0  0  0  0  0  0  0  0  0  0
    4.4930    1.4652    0.6786 H   0  0  0  0  0  0  0  0  0  0  0  0
    4.5859    0.6177   -0.8753 H   0  0  0  0  0  0  0  0  0  0  0  0
    2.9204   -0.3298    0.7280 H   0  0  0  0  0  0  0  0  0  0  0  0
    0.7738    0.0512   -1.3899 H   0  0  0  0  0  0  0  0  0  0  0  0
    1.8225   -1.4705   -1.0777 H   0  0  0  0  0  0  0  0  0  0  0  0
   -0.8882   -2.1505   -0.0775 H   0  0  0  0  0  0  0  0  0  0  0  0
   -1.0953   -1.4640    1.5355 H   0  0  0  0  0  0  0  0  0  0  0  0
   -1.9674    0.6496    0.5992 H   0  0  0  0  0  0  0  0  0  0  0  0
   -2.0281    0.9097   -1.6014 H   0  0  0  0  0  0  0  0  0  0  0  0
   -3.4547   -1.3440    0.9391 H   0  0  0  0  0  0  0  0  0  0  0  0
   -3.1000   -1.8789   -0.7406 H   0  0  0  0  0  0  0  0  0  0  0  0
   -3.9353    0.8687   -0.5227 H   0  0  0  0  0  0  0  0  0  0  0  0
   -4.3380   -0.3479   -1.6304 H   0  0  0  0  0  0  0  0  0  0  0  0
    0.9927    0.7690    1.9734 H   0  0  0  0  0  0  0  0  0  0  0  0
    0.3243    1.3474    0.3447 H   0  0  0  0  0  0  0  0  0  0  0  0
  1  2  1  0
  2  3  1  0
  3  4  1  0
  4  5  1  0
  5  6  1  0
  6  7  1  0
  7  8  1  0
  7  9  1  0
  9 10  1  0
  5 11  1  0
 11  3  1  0
  1 12  1  0
  1 13  1  0
  1 14  1  0
  3 15  1  0
  4 16  1  0
  4 17  1  0
  6 18  1  0
  6 19  1  0
  7 20  1  1
  8 21  1  0
  9 22  1  0
  9 23  1  0
 10 24  1  0
 10 25  1  0
 11 26  1  0
 11 27  1  0
M  END
$$$$
