
     RDKit          3D

 26 26  0  0  0  0  0  0  0  0999 V2000
    2.3315    1.5910   -0.1192 C   0  0  0  0  0  0  0  0  0  0  0  0
    1.3383    0.5400    0.3097 C   0  0  2  0  0  0  0  0  0  0  0  0
    1.4253   -0.7196   -0.4980 C   0  0  0  0  0  0  0  0  0  0  0  0
    0.4370   -1.7083    0.0853 C   0  0  1  0  0  0  0  0  0  0  0  0
    0.8816   -2.2757    1.2662 O   0  0  0  0  0  0  0  0  0  0  0  0
   -0.9216   -1.0766    0.2396 C   0  0  2  0  0  0  0  0  0  0  0  0
   -1.9065   -1.7494   -0.4999 O   0  0  0  0  0  0  0  0  0  0  0  0
   -0.8978    0.3427   -0.2552 C   0  0  1  0  0  0  0  0  0  0  0  0
   -0.8357    0.3972   -1.6520 O   0  0  0  0  0  0  0  0  0  0  0  0
   -2.2336    0.9719    0.1433 C   0  0  0  0  0  0  0  0  0  0  0  0
   -2.2269    2.2896   -0.3306 O   0  0  0  0  0  0  0  0  0  0  0  0
    0.0913    1.1114    0.3394 O   0  0  0  0  0  0  0  0  0  0  0  0
    2.9023    2.0183    0.7308 H   0  0  0  0  0  0  0  0  0  0  0  0
    1.8131    2.4654   -0.6013 H   0  0  0  0  0  0  0  0  0  0  0  0
    3.0530    1.2263   -0.8631 H   0  0  0  0  0  0  0  0  0  0  0  0
    1.6166    0.2637    1.3668 H   0  0  0  0  0  0  0  0  0  0  0  0
    1.2864   -0.5858   -1.5702 H   0  0  0  0  0  0  0  0  0  0  0  0
    2.4444   -1.1413   -0.3491 H   0  0  0  0  0  0  0  0  0  0  0  0
    0.3535   -2.5498   -0.6569 H   0  0  0  0  0  0  0  0  0  0  0  0
    1.5131   -1.7336    1.7717 H   0  0  0  0  0  0  0  0  0  0  0  0
   -1.2109   -1.0706    1.3113 H   0  0  0  0  0  0  0  0  0  0  0  0
   -2.0816   -2.6560   -0.1544 H   0  0  0  0  0  0  0  0  0  0  0  0
   -1.5980   -0.1839   -1.9654 H   0  0  0  0  0  0  0  0  0  0  0  0
   -2.4227    0.9096    1.2176 H   0  0  0  0  0  0  0  0  0  0  0  0
   -3.0118    0.4141   -0.4549 H   0  0  0  0  0  0  0  0  0  0  0  0
   -2.1404    2.9093    0.4393 H   0  0  0  0  0  0  0  0  0  0  0  0
  1  2  1  0
  2  3  1  0
  3  4  1  0
  4  5  1  0
  4  6  1  0
  6  7  1  0
  6  8  1  0
  8  9  1  6
  8 10  1  0
 10 11  1  0
  8 12  1  0
 12  2  1  0
  1 13  1  0
  1 14  1  0
  1 15  1  0
  2 16  1  1
  3 17  1  0
  3 18  1  0
  4 19  1  6
  5 20  1  0
  6 21  1  1
  7 22  1  0
  9 23  1  0
 10 24  1  0
 10 25  1  0
 11 26  1  0
M  END
$$$$

     RDKit          3D

 26 26  0  0  0  0  0  0  0  0999 V2000
    2.1428   -1.1085    1.1118 C   0  0  0  0  0  0  0  0  0  0  0  0
    1.1031   -1.1518   -0.0169 C   0  0  2  0  0  0  0  0  0  0  0  0
    1.3982   -0.0444   -0.9652 C   0  0  0  0  0  0  0  0  0  0  0  0
    0.6610    1.2286   -0.6114 C   0  0  1  0  0  0  0  0  0  0  0  0
    0.9061    2.1443   -1.6186 O   0  0  0  0  0  0  0  0  0  0  0  0
   -0.8115    0.8249   -0.5696 C   0  0  2  0  0  0  0  0  0  0  0  0
   -1.5974    1.9297   -0.3439 O   0  0  0  0  0  0  0  0  0  0  0  0
   -0.9715   -0.2032    0.4850 C   0  0  1  0  0  0  0  0  0  0  0  0
   -0.9937    0.4619    1.7318 O   0  0  0  0  0  0  0  0  0  0  0  0
   -2.3804   -0.7993    0.3345 C   0  0  0  0  0  0  0  0  0  0  0  0
   -2.4727   -1.4907   -0.8833 O   0  0  0  0  0  0  0  0  0  0  0  0
   -0.1129   -1.2176    0.5251 O   0  0  0  0  0  0  0  0  0  0  0  0
    2.7220   -0.1547    1.0684 H   0  0  0  0  0  0  0  0  0  0  0  0
    1.6510   -1.1229    2.1066 H   0  0  0  0  0  0  0  0  0  0  0  0
    2.8810   -1.9282    1.0106 H   0  0  0  0  0  0  0  0  0  0  0  0
    1.2895   -2.1182   -0.5751 H   0  0  0  0  0  0  0  0  0  0  0  0
    1.1199   -0.3205   -2.0046 H   0  0  0  0  0  0  0  0  0  0  0  0
    2.4916    0.1518   -0.9381 H   0  0  0  0  0  0  0  0  0  0  0  0
    0.9749    1.5804    0.3850 H   0  0  0  0  0  0  0  0  0  0  0  0
    1.4188    2.9397   -1.2866 H   0  0  0  0  0  0  0  0  0  0  0  0
   -1.0706    0.4074   -1.5596 H   0  0  0  0  0  0  0  0  0  0  0  0
   -1.2316    2.5486    0.3394 H   0  0  0  0  0  0  0  0  0  0  0  0
   -0.7226   -0.1083    2.4679 H   0  0  0  0  0  0  0  0  0  0  0  0
   -2.5953   -1.5263    1.1328 H   0  0  0  0  0  0  0  0  0  0  0  0
   -3.1512   -0.0194    0.3196 H   0  0  0  0  0  0  0  0  0  0  0  0
   -2.6484   -0.9032   -1.6456 H   0  0  0  0  0  0  0  0  0  0  0  0
  1  2  1  0
  2  3  1  0
  3  4  1  0
  4  5  1  0
  4  6  1  0
  6  7  1  0
  6  8  1  0
  8  9  1  1
  8 10  1  0
 10 11  1  0
  8 12  1  0
 12  2  1  0
  1 13  1  0
  1 14  1  0
  1 15  1  0
  2 16  1  6
  3 17  1  0
  3 18  1  0
  4 19  1  1
  5 20  1  0
  6 21  1  6
  7 22  1  0
  9 23  1  0
 10 24  1  0
 10 25  1  0
 11 26  1  0
M  END
$$$$

     RDKit          3D

 26 26  0  0  0  0  0  0  0  0999 V2000
   -1.7970    1.9953    0.6095 C   0  0  0  0  0  0  0  0  0  0  0  0
   -0.8953    1.1643   -0.3166 C   0  0  2  0  0  0  0  0  0  0  0  0
   -1.6026   -0.1077   -0.5967 C   0  0  0  0  0  0  0  0  0  0  0  0
   -0.9390   -1.2784    0.1049 C   0  0  1  0  0  0  0  0  0  0  0  0
   -1.5624   -2.4632   -0.2511 O   0  0  0  0  0  0  0  0  0  0  0  0
    0.5120   -1.2323   -0.3255 C   0  0  2  0  0  0  0  0  0  0  0  0
    1.1489   -2.3044    0.3168 O   0  0  0  0  0  0  0  0  0  0  0  0
    1.1166    0.0561    0.1067 C   0  0  1  0  0  0  0  0  0  0  0  0
    1.7101   -0.1723    1.3728 O   0  0  0  0  0  0  0  0  0  0  0  0
    2.2949    0.4074   -0.8125 C   0  0  0  0  0  0  0  0  0  0  0  0
    2.9046    1.5403   -0.2941 O   0  0  0  0  0  0  0  0  0  0  0  0
    0.3213    1.1216    0.2121 O   0  0  0  0  0  0  0  0  0  0  0  0
   -1.4548    3.0308    0.6241 H   0  0  0  0  0  0  0  0  0  0  0  0
   -2.8354    1.8433    0.2929 H   0  0  0  0  0  0  0  0  0  0  0  0
   -1.6524    1.5438    1.6344 H   0  0  0  0  0  0  0  0  0  0  0  0
   -0.8712    1.7566   -1.2772 H   0  0  0  0  0  0  0  0  0  0  0  0
   -2.6657   -0.1072   -0.2590 H   0  0  0  0  0  0  0  0  0  0  0  0
   -1.6438   -0.3233   -1.7010 H   0  0  0  0  0  0  0  0  0  0  0  0
   -0.9662   -1.0619    1.1807 H   0  0  0  0  0  0  0  0  0  0  0  0
   -2.1462   -2.7385    0.5189 H   0  0  0  0  0  0  0  0  0  0  0  0
    0.6295   -1.4234   -1.4147 H   0  0  0  0  0  0  0  0  0  0  0  0
    0.7061   -2.4302    1.1932 H   0  0  0  0  0  0  0  0  0  0  0  0
    2.3239   -0.9448    1.2984 H   0  0  0  0  0  0  0  0  0  0  0  0
    1.9792    0.5734   -1.8404 H   0  0  0  0  0  0  0  0  0  0  0  0
    3.0293   -0.4479   -0.7536 H   0  0  0  0  0  0  0  0  0  0  0  0
    2.3555    2.0025    0.3771 H   0  0  0  0  0  0  0  0  0  0  0  0
  1  2  1  0
  2  3  1  0
  3  4  1  0
  4  5  1  0
  4  6  1  0
  6  7  1  0
  6  8  1  0
  8  9  1  1
  8 10  1  0
 10 11  1  0
  8 12  1  0
 12  2  1  0
  1 13  1  0
  1 14  1  0
  1 15  1  0
  2 16  1  6
  3 17  1  0
  3 18  1  0
  4 19  1  1
  5 20  1  0
  6 21  1  6
  7 22  1  0
  9 23  1  0
 10 24  1  0
 10 25  1  0
 11 26  1  0
M  END
$$$$

     RDKit          3D

 26 26  0  0  0  0  0  0  0  0999 V2000
    2.6223    1.1981    0.2536 C   0  0  0  0  0  0  0  0  0  0  0  0
    1.2878    0.5046    0.4567 C   0  0  2  0  0  0  0  0  0  0  0  0
    1.4707   -0.9319    0.0805 C   0  0  0  0  0  0  0  0  0  0  0  0
    0.2245   -1.5441   -0.5348 C   0  0  1  0  0  0  0  0  0  0  0  0
    0.1488   -2.9020   -0.3444 O   0  0  0  0  0  0  0  0  0  0  0  0
   -0.9275   -0.7991    0.1545 C   0  0  2  0  0  0  0  0  0  0  0  0
   -2.1405   -1.3834   -0.0789 O   0  0  0  0  0  0  0  0  0  0  0  0
   -0.8634    0.5974   -0.4260 C   0  0  1  0  0  0  0  0  0  0  0  0
   -1.1019    0.4771   -1.7965 O   0  0  0  0  0  0  0  0  0  0  0  0
   -1.9943    1.4209    0.1632 C   0  0  0  0  0  0  0  0  0  0  0  0
   -1.8237    1.5826    1.5285 O   0  0  0  0  0  0  0  0  0  0  0  0
    0.3557    1.1897   -0.2696 O   0  0  0  0  0  0  0  0  0  0  0  0
    3.4491    0.4737    0.0736 H   0  0  0  0  0  0  0  0  0  0  0  0
    2.5959    1.9181   -0.5957 H   0  0  0  0  0  0  0  0  0  0  0  0
    2.9076    1.8053    1.1470 H   0  0  0  0  0  0  0  0  0  0  0  0
    1.0349    0.6116    1.5392 H   0  0  0  0  0  0  0  0  0  0  0  0
    1.6606   -1.5077    1.0203 H   0  0  0  0  0  0  0  0  0  0  0  0
    2.3661   -1.1017   -0.5615 H   0  0  0  0  0  0  0  0  0  0  0  0
    0.2315   -1.2529   -1.6257 H   0  0  0  0  0  0  0  0  0  0  0  0
   -0.4671   -3.2625   -1.0550 H   0  0  0  0  0  0  0  0  0  0  0  0
   -0.6611   -0.7142    1.2276 H   0  0  0  0  0  0  0  0  0  0  0  0
   -2.0972   -2.3202    0.2756 H   0  0  0  0  0  0  0  0  0  0  0  0
   -2.0590    0.3181   -2.0002 H   0  0  0  0  0  0  0  0  0  0  0  0
   -2.0790    2.4054   -0.3369 H   0  0  0  0  0  0  0  0  0  0  0  0
   -2.9466    0.8703    0.0186 H   0  0  0  0  0  0  0  0  0  0  0  0
   -1.1942    2.3466    1.6863 H   0  0  0  0  0  0  0  0  0  0  0  0
  1  2  1  0
  2  3  1  0
  3  4  1  0
  4  5  1  0
  4  6  1  0
  6  7  1  0
  6  8  1  0
  8  9  1  6
  8 10  1  0
 10 11  1  0
  8 12  1  0
 12  2  1  0
  1 13  1  0
  1 14  1  0
  1 15  1  0
  2 16  1  1
  3 17  1  0
  3 18  1  0
  4 19  1  6
  5 20  1  0
  6 21  1  1
  7 22  1  0
  9 23  1  0
 10 24  1  0
 10 25  1  0
 11 26  1  0
M  END
$$$$

     RDKit          3D

 26 26  0  0  0  0  0  0  0  0999 V2000
   -2.3650    1.7070   -0.1936 C   0  0  0  0  0  0  0  0  0  0  0  0
   -1.2366    0.7339   -0.5068 C   0  0  2  0  0  0  0  0  0  0  0  0
   -1.7309   -0.6711   -0.2224 C   0  0  0  0  0  0  0  0  0  0  0  0
   -0.5367   -1.5693    0.0187 C   0  0  1  0  0  0  0  0  0  0  0  0
   -0.7417   -2.8693   -0.3733 O   0  0  0  0  0  0  0  0  0  0  0  0
    0.6396   -0.9270   -0.7093 C   0  0  2  0  0  0  0  0  0  0  0  0
    1.7490   -1.7499   -0.7227 O   0  0  0  0  0  0  0  0  0  0  0  0
    0.9709    0.3397    0.0536 C   0  0  1  0  0  0  0  0  0  0  0  0
    1.4877   -0.0718    1.2910 O   0  0  0  0  0  0  0  0  0  0  0  0
    2.0201    1.1594   -0.7007 C   0  0  0  0  0  0  0  0  0  0  0  0
    2.3390    2.2712    0.0767 O   0  0  0  0  0  0  0  0  0  0  0  0
   -0.1639    1.0799    0.2909 O   0  0  0  0  0  0  0  0  0  0  0  0
   -1.9746    2.6645    0.2170 H   0  0  0  0  0  0  0  0  0  0  0  0
   -2.9169    1.9799   -1.1350 H   0  0  0  0  0  0  0  0  0  0  0  0
   -3.1119    1.2335    0.4704 H   0  0  0  0  0  0  0  0  0  0  0  0
   -0.9752    0.8428   -1.5775 H   0  0  0  0  0  0  0  0  0  0  0  0
   -2.3802   -0.6127    0.6623 H   0  0  0  0  0  0  0  0  0  0  0  0
   -2.3167   -1.0378   -1.1067 H   0  0  0  0  0  0  0  0  0  0  0  0
   -0.2789   -1.5069    1.1163 H   0  0  0  0  0  0  0  0  0  0  0  0
   -0.5748   -3.4691    0.3963 H   0  0  0  0  0  0  0  0  0  0  0  0
    0.3594   -0.7250   -1.7587 H   0  0  0  0  0  0  0  0  0  0  0  0
    1.7481   -2.4446   -0.0333 H   0  0  0  0  0  0  0  0  0  0  0  0
    2.3130   -0.5799    1.0842 H   0  0  0  0  0  0  0  0  0  0  0  0
    1.5345    1.4838   -1.6498 H   0  0  0  0  0  0  0  0  0  0  0  0
    2.8776    0.5428   -0.9650 H   0  0  0  0  0  0  0  0  0  0  0  0
    3.2654    2.1961    0.4597 H   0  0  0  0  0  0  0  0  0  0  0  0
  1  2  1  0
  2  3  1  0
  3  4  1  0
  4  5  1  0
  4  6  1  0
  6  7  1  0
  6  8  1  0
  8  9  1  1
  8 10  1  0
 10 11  1  0
  8 12  1  0
 12  2  1  0
  1 13  1  0
  1 14  1  0
  1 15  1  0
  2 16  1  6
  3 17  1  0
  3 18  1  0
  4 19  1  1
  5 20  1  0
  6 21  1  6
  7 22  1  0
  9 23  1  0
 10 24  1  0
 10 25  1  0
 11 26  1  0
M  END
$$$$

     RDKit          3D

 26 26  0  0  0  0  0  0  0  0999 V2000
   -1.9060    2.1382    0.0746 C   0  0  0  0  0  0  0  0  0  0  0  0
   -1.0407    0.9410   -0.0351 C   0  0  2  0  0  0  0  0  0  0  0  0
   -1.6878   -0.3183    0.5573 C   0  0  0  0  0  0  0  0  0  0  0  0
   -0.9670   -1.4467   -0.1858 C   0  0  1  0  0  0  0  0  0  0  0  0
   -1.5986   -1.4980   -1.4524 O   0  0  0  0  0  0  0  0  0  0  0  0
    0.4829   -1.1682   -0.3153 C   0  0  2  0  0  0  0  0  0  0  0  0
    1.1757   -2.3081    0.1582 O   0  0  0  0  0  0  0  0  0  0  0  0
    1.0139    0.0179    0.3646 C   0  0  1  0  0  0  0  0  0  0  0  0
    1.6029   -0.3737    1.5903 O   0  0  0  0  0  0  0  0  0  0  0  0
    2.1818    0.5666   -0.4678 C   0  0  0  0  0  0  0  0  0  0  0  0
    2.7836    1.6390    0.1574 O   0  0  0  0  0  0  0  0  0  0  0  0
    0.1741    1.0489    0.6232 O   0  0  0  0  0  0  0  0  0  0  0  0
   -2.8973    1.8057    0.5013 H   0  0  0  0  0  0  0  0  0  0  0  0
   -2.1815    2.5514   -0.9389 H   0  0  0  0  0  0  0  0  0  0  0  0
   -1.4864    2.9813    0.6412 H   0  0  0  0  0  0  0  0  0  0  0  0
   -0.7987    0.7793   -1.1217 H   0  0  0  0  0  0  0  0  0  0  0  0
   -1.3963   -0.4395    1.6292 H   0  0  0  0  0  0  0  0  0  0  0  0
   -2.7647   -0.3405    0.4160 H   0  0  0  0  0  0  0  0  0  0  0  0
   -1.1939   -2.4382    0.2840 H   0  0  0  0  0  0  0  0  0  0  0  0
   -0.9336   -1.2175   -2.1355 H   0  0  0  0  0  0  0  0  0  0  0  0
    0.7382   -1.1348   -1.4151 H   0  0  0  0  0  0  0  0  0  0  0  0
    0.6036   -2.7945    0.8275 H   0  0  0  0  0  0  0  0  0  0  0  0
    2.2804   -1.0546    1.3962 H   0  0  0  0  0  0  0  0  0  0  0  0
    2.8918   -0.2308   -0.7335 H   0  0  0  0  0  0  0  0  0  0  0  0
    1.7428    0.9408   -1.4366 H   0  0  0  0  0  0  0  0  0  0  0  0
    3.1808    1.3532    1.0169 H   0  0  0  0  0  0  0  0  0  0  0  0
  1  2  1  0
  2  3  1  0
  3  4  1  0
  4  5  1  0
  4  6  1  0
  6  7  1  0
  6  8  1  0
  8  9  1  1
  8 10  1  0
 10 11  1  0
  8 12  1  0
 12  2  1  0
  1 13  1  0
  1 14  1  0
  1 15  1  0
  2 16  1  6
  3 17  1  0
  3 18  1  0
  4 19  1  1
  5 20  1  0
  6 21  1  6
  7 22  1  0
  9 23  1  0
 10 24  1  0
 10 25  1  0
 11 26  1  0
M  END
$$$$

     RDKit          3D

 26 26  0  0  0  0  0  0  0  0999 V2000
    2.2623    1.1380   -0.5188 C   0  0  0  0  0  0  0  0  0  0  0  0
    1.2823    0.8018    0.6122 C   0  0  2  0  0  0  0  0  0  0  0  0
    1.4127   -0.6521    0.8947 C   0  0  0  0  0  0  0  0  0  0  0  0
    0.6315   -1.4638   -0.0937 C   0  0  1  0  0  0  0  0  0  0  0  0
    0.6550   -2.7993    0.2592 O   0  0  0  0  0  0  0  0  0  0  0  0
   -0.7870   -0.9429   -0.0828 C   0  0  2  0  0  0  0  0  0  0  0  0
   -1.4568   -1.5900   -1.1305 O   0  0  0  0  0  0  0  0  0  0  0  0
   -0.8876    0.5271   -0.1958 C   0  0  1  0  0  0  0  0  0  0  0  0
   -0.9573    0.8523   -1.5674 O   0  0  0  0  0  0  0  0  0  0  0  0
   -2.2411    0.9459    0.4011 C   0  0  0  0  0  0  0  0  0  0  0  0
   -2.3471    2.3167    0.1727 O   0  0  0  0  0  0  0  0  0  0  0  0
    0.0471    1.2800    0.3973 O   0  0  0  0  0  0  0  0  0  0  0  0
    1.9688    0.6883   -1.4692 H   0  0  0  0  0  0  0  0  0  0  0  0
    2.3591    2.2457   -0.5782 H   0  0  0  0  0  0  0  0  0  0  0  0
    3.2687    0.7836   -0.1544 H   0  0  0  0  0  0  0  0  0  0  0  0
    1.7071    1.3425    1.5113 H   0  0  0  0  0  0  0  0  0  0  0  0
    1.0759   -0.8417    1.9491 H   0  0  0  0  0  0  0  0  0  0  0  0
    2.4830   -0.9327    0.7798 H   0  0  0  0  0  0  0  0  0  0  0  0
    1.0829   -1.3109   -1.0879 H   0  0  0  0  0  0  0  0  0  0  0  0
    0.3022   -2.9271    1.1633 H   0  0  0  0  0  0  0  0  0  0  0  0
   -1.2924   -1.2917    0.8511 H   0  0  0  0  0  0  0  0  0  0  0  0
   -2.3038   -1.9890   -0.8567 H   0  0  0  0  0  0  0  0  0  0  0  0
   -1.2080    0.0509   -2.1065 H   0  0  0  0  0  0  0  0  0  0  0  0
   -2.1178    0.8148    1.5027 H   0  0  0  0  0  0  0  0  0  0  0  0
   -3.0692    0.3726   -0.0111 H   0  0  0  0  0  0  0  0  0  0  0  0
   -1.8706    2.5811   -0.6412 H   0  0  0  0  0  0  0  0  0  0  0  0
  1  2  1  0
  2  3  1  0
  3  4  1  0
  4  5  1  0
  4  6  1  0
  6  7  1  0
  6  8  1  0
  8  9  1  6
  8 10  1  0
 10 11  1  0
  8 12  1  0
 12  2  1  0
  1 13  1  0
  1 14  1  0
  1 15  1  0
  2 16  1  1
  3 17  1  0
  3 18  1  0
  4 19  1  6
  5 20  1  0
  6 21  1  1
  7 22  1  0
  9 23  1  0
 10 24  1  0
 10 25  1  0
 11 26  1  0
M  END
$$$$

     RDKit          3D

 26 26  0  0  0  0  0  0  0  0999 V2000
    2.3532   -0.8705   -0.0129 C   0  0  0  0  0  0  0  0  0  0  0  0
    1.3838   -0.1924   -0.9277 C   0  0  2  0  0  0  0  0  0  0  0  0
    1.2418    1.2676   -0.5239 C   0  0  0  0  0  0  0  0  0  0  0  0
    0.3835    1.3213    0.7048 C   0  0  1  0  0  0  0  0  0  0  0  0
    0.2416    2.5808    1.2330 O   0  0  0  0  0  0  0  0  0  0  0  0
   -0.9725    0.7256    0.3002 C   0  0  2  0  0  0  0  0  0  0  0  0
   -1.8771    0.8470    1.3257 O   0  0  0  0  0  0  0  0  0  0  0  0
   -0.6790   -0.7285   -0.0196 C   0  0  1  0  0  0  0  0  0  0  0  0
   -0.1999   -1.3058    1.1551 O   0  0  0  0  0  0  0  0  0  0  0  0
   -1.9943   -1.3826   -0.4474 C   0  0  0  0  0  0  0  0  0  0  0  0
   -2.3896   -0.7445   -1.6187 O   0  0  0  0  0  0  0  0  0  0  0  0
    0.1882   -0.8348   -1.0725 O   0  0  0  0  0  0  0  0  0  0  0  0
    2.6894   -0.1696    0.8049 H   0  0  0  0  0  0  0  0  0  0  0  0
    1.9811   -1.7814    0.4607 H   0  0  0  0  0  0  0  0  0  0  0  0
    3.3145   -1.1572   -0.5283 H   0  0  0  0  0  0  0  0  0  0  0  0
    1.8703   -0.1649   -1.9474 H   0  0  0  0  0  0  0  0  0  0  0  0
    0.6876    1.7575   -1.3617 H   0  0  0  0  0  0  0  0  0  0  0  0
    2.2420    1.6773   -0.3645 H   0  0  0  0  0  0  0  0  0  0  0  0
    0.8305    0.6123    1.4525 H   0  0  0  0  0  0  0  0  0  0  0  0
    0.4975    3.2770    0.5723 H   0  0  0  0  0  0  0  0  0  0  0  0
   -1.3183    1.2490   -0.6177 H   0  0  0  0  0  0  0  0  0  0  0  0
   -1.9657    0.0467    1.8851 H   0  0  0  0  0  0  0  0  0  0  0  0
   -0.7396   -2.0410    1.4880 H   0  0  0  0  0  0  0  0  0  0  0  0
   -2.7718   -1.3008    0.3092 H   0  0  0  0  0  0  0  0  0  0  0  0
   -1.7608   -2.4414   -0.7395 H   0  0  0  0  0  0  0  0  0  0  0  0
   -3.2366   -0.2467   -1.5099 H   0  0  0  0  0  0  0  0  0  0  0  0
  1  2  1  0
  2  3  1  0
  3  4  1  0
  4  5  1  0
  4  6  1  0
  6  7  1  0
  6  8  1  0
  8  9  1  1
  8 10  1  0
 10 11  1  0
  8 12  1  0
 12  2  1  0
  1 13  1  0
  1 14  1  0
  1 15  1  0
  2 16  1  6
  3 17  1  0
  3 18  1  0
  4 19  1  1
  5 20  1  0
  6 21  1  6
  7 22  1  0
  9 23  1  0
 10 24  1  0
 10 25  1  0
 11 26  1  0
M  END
$$$$
