
     RDKit          3D

 27 29  0  0  0  0  0  0  0  0999 V2000
    1.9634    0.2748    1.3345 C   0  0  0  0  0  0  0  0  0  0  0  0
    0.9438    0.3601    0.4133 N   0  0  0  0  0  0  0  0  0  0  0  0
   -0.3051    0.8859    0.7455 C   0  0  2  0  0  0  0  0  0  0  0  0
   -1.2014   -0.2609    1.2205 C   0  0  1  0  0  0  0  0  0  0  0  0
   -2.4286    0.2090    1.6686 O   0  0  0  0  0  0  0  0  0  0  0  0
   -1.4192   -1.2993    0.1857 C   0  0  1  0  0  0  0  0  0  0  0  0
   -2.3841   -0.9148   -0.8260 O   0  0  0  0  0  0  0  0  0  0  0  0
   -0.9818   -1.1118   -1.1147 C   0  0  1  0  0  0  0  0  0  0  0  0
   -0.2237    0.1272   -1.4510 C   0  0  1  0  0  0  0  0  0  0  0  0
   -0.8593    1.2680   -0.6371 C   0  0  2  0  0  0  0  0  0  0  0  0
   -0.3162    2.4626   -1.0427 O   0  0  0  0  0  0  0  0  0  0  0  0
    1.1174    0.1344   -0.8878 N   0  0  0  0  0  0  0  0  0  0  0  0
    1.8923   -1.0073   -1.2387 C   0  0  0  0  0  0  0  0  0  0  0  0
    1.8747   -0.6669    1.9357 H   0  0  0  0  0  0  0  0  0  0  0  0
    1.9842    1.1004    2.0899 H   0  0  0  0  0  0  0  0  0  0  0  0
    2.9644    0.2505    0.8522 H   0  0  0  0  0  0  0  0  0  0  0  0
   -0.3446    1.7151    1.4452 H   0  0  0  0  0  0  0  0  0  0  0  0
   -0.6837   -0.7223    2.0940 H   0  0  0  0  0  0  0  0  0  0  0  0
   -2.3738    0.5252    2.6041 H   0  0  0  0  0  0  0  0  0  0  0  0
   -1.6884   -2.3030    0.5829 H   0  0  0  0  0  0  0  0  0  0  0  0
   -0.8508   -1.9402   -1.8256 H   0  0  0  0  0  0  0  0  0  0  0  0
   -0.2515    0.3666   -2.5146 H   0  0  0  0  0  0  0  0  0  0  0  0
   -1.9551    1.2225   -0.6626 H   0  0  0  0  0  0  0  0  0  0  0  0
   -0.9749    3.1791   -1.1109 H   0  0  0  0  0  0  0  0  0  0  0  0
    2.9415   -0.6458   -1.4442 H   0  0  0  0  0  0  0  0  0  0  0  0
    1.5533   -1.5714   -2.1052 H   0  0  0  0  0  0  0  0  0  0  0  0
    2.0073   -1.6377   -0.3109 H   0  0  0  0  0  0  0  0  0  0  0  0
  1  2  1  0
  2  3  1  0
  3  4  1  0
  4  5  1  0
  4  6  1  0
  6  7  1  0
  7  8  1  0
  8  9  1  0
  9 10  1  0
 10 11  1  0
  9 12  1  0
 12 13  1  0
 12  2  1  0
 10  3  1  0
  8  6  1  0
  1 14  1  0
  1 15  1  0
  1 16  1  0
  3 17  1  1
  4 18  1  1
  5 19  1  0
  6 20  1  1
  8 21  1  6
  9 22  1  6
 10 23  1  1
 11 24  1  0
 13 25  1  0
 13 26  1  0
 13 27  1  0
M  END
$$$$

     RDKit          3D

 27 29  0  0  0  0  0  0  0  0999 V2000
   -1.1046    2.1354    0.1047 C   0  0  0  0  0  0  0  0  0  0  0  0
   -0.8143    0.8266    0.5859 N   0  0  0  0  0  0  0  0  0  0  0  0
    0.6069    0.6172    0.8631 C   0  0  2  0  0  0  0  0  0  0  0  0
    1.4642    0.7935   -0.3341 C   0  0  1  0  0  0  0  0  0  0  0  0
    2.7945    0.9325    0.1083 O   0  0  0  0  0  0  0  0  0  0  0  0
    1.4260   -0.2915   -1.3351 C   0  0  1  0  0  0  0  0  0  0  0  0
    2.0237   -1.5264   -0.9056 O   0  0  0  0  0  0  0  0  0  0  0  0
    0.6817   -1.4478   -1.1635 C   0  0  1  0  0  0  0  0  0  0  0  0
   -0.3023   -1.3315    0.0088 C   0  0  1  0  0  0  0  0  0  0  0  0
    0.5635   -0.8837    1.1956 C   0  0  2  0  0  0  0  0  0  0  0  0
   -0.1029   -1.0242    2.3906 O   0  0  0  0  0  0  0  0  0  0  0  0
   -1.1134   -0.1959   -0.2738 N   0  0  0  0  0  0  0  0  0  0  0  0
   -2.4923   -0.4555   -0.4870 C   0  0  0  0  0  0  0  0  0  0  0  0
   -1.0901    2.1751   -1.0042 H   0  0  0  0  0  0  0  0  0  0  0  0
   -0.4500    2.8571    0.5937 H   0  0  0  0  0  0  0  0  0  0  0  0
   -2.1568    2.3845    0.4316 H   0  0  0  0  0  0  0  0  0  0  0  0
    0.9637    1.2105    1.7072 H   0  0  0  0  0  0  0  0  0  0  0  0
    1.2261    1.7619   -0.8379 H   0  0  0  0  0  0  0  0  0  0  0  0
    3.2196    0.0163    0.0676 H   0  0  0  0  0  0  0  0  0  0  0  0
    1.8169    0.0070   -2.3511 H   0  0  0  0  0  0  0  0  0  0  0  0
    0.2301   -2.0027   -2.0121 H   0  0  0  0  0  0  0  0  0  0  0  0
   -0.8252   -2.2608    0.2077 H   0  0  0  0  0  0  0  0  0  0  0  0
    1.5608   -1.3240    1.1646 H   0  0  0  0  0  0  0  0  0  0  0  0
    0.4541   -1.4186    3.1059 H   0  0  0  0  0  0  0  0  0  0  0  0
   -3.0459    0.5006   -0.4342 H   0  0  0  0  0  0  0  0  0  0  0  0
   -2.9095   -1.2480    0.1558 H   0  0  0  0  0  0  0  0  0  0  0  0
   -2.6243   -0.8078   -1.5524 H   0  0  0  0  0  0  0  0  0  0  0  0
  1  2  1  0
  2  3  1  0
  3  4  1  0
  4  5  1  0
  4  6  1  0
  6  7  1  0
  7  8  1  0
  8  9  1  0
  9 10  1  0
 10 11  1  0
  9 12  1  0
 12 13  1  0
 12  2  1  0
 10  3  1  0
  8  6  1  0
  1 14  1  0
  1 15  1  0
  1 16  1  0
  3 17  1  1
  4 18  1  6
  5 19  1  0
  6 20  1  6
  8 21  1  6
  9 22  1  1
 10 23  1  1
 11 24  1  0
 13 25  1  0
 13 26  1  0
 13 27  1  0
M  END
$$$$

     RDKit          3D

 27 29  0  0  0  0  0  0  0  0999 V2000
    2.0651    1.0713    0.3664 C   0  0  0  0  0  0  0  0  0  0  0  0
    0.8291    0.8842   -0.2172 N   0  0  0  0  0  0  0  0  0  0  0  0
   -0.3406    1.0826    0.5487 C   0  0  2  0  0  0  0  0  0  0  0  0
   -0.5672    0.0435    1.6165 C   0  0  1  0  0  0  0  0  0  0  0  0
   -1.7485    0.3335    2.2957 O   0  0  0  0  0  0  0  0  0  0  0  0
   -0.6502   -1.3495    1.1032 C   0  0  1  0  0  0  0  0  0  0  0  0
   -1.9613   -1.6555    0.5821 O   0  0  0  0  0  0  0  0  0  0  0  0
   -0.8811   -1.5550   -0.2763 C   0  0  1  0  0  0  0  0  0  0  0  0
   -0.7662   -0.3835   -1.2141 C   0  0  1  0  0  0  0  0  0  0  0  0
   -1.4115    0.8278   -0.5251 C   0  0  2  0  0  0  0  0  0  0  0  0
   -1.4338    1.8769   -1.4242 O   0  0  0  0  0  0  0  0  0  0  0  0
    0.6328    0.0585   -1.2467 N   0  0  0  0  0  0  0  0  0  0  0  0
    1.5495   -1.0056   -1.4497 C   0  0  0  0  0  0  0  0  0  0  0  0
    2.8972    0.4785   -0.0066 H   0  0  0  0  0  0  0  0  0  0  0  0
    2.3761    2.1515    0.2576 H   0  0  0  0  0  0  0  0  0  0  0  0
    2.0245    0.9043    1.4747 H   0  0  0  0  0  0  0  0  0  0  0  0
   -0.4403    2.0731    0.9990 H   0  0  0  0  0  0  0  0  0  0  0  0
    0.2618    0.1402    2.3585 H   0  0  0  0  0  0  0  0  0  0  0  0
   -2.4882   -0.1255    1.8069 H   0  0  0  0  0  0  0  0  0  0  0  0
   -0.1983   -2.1168    1.7570 H   0  0  0  0  0  0  0  0  0  0  0  0
   -0.5832   -2.5207   -0.7494 H   0  0  0  0  0  0  0  0  0  0  0  0
   -1.1767   -0.5661   -2.2044 H   0  0  0  0  0  0  0  0  0  0  0  0
   -2.3818    0.5974   -0.0976 H   0  0  0  0  0  0  0  0  0  0  0  0
   -1.0154    2.7044   -1.0805 H   0  0  0  0  0  0  0  0  0  0  0  0
    2.1188   -1.3225   -0.5673 H   0  0  0  0  0  0  0  0  0  0  0  0
    2.2530   -0.7044   -2.2713 H   0  0  0  0  0  0  0  0  0  0  0  0
    1.0364   -1.9227   -1.8358 H   0  0  0  0  0  0  0  0  0  0  0  0
  1  2  1  0
  2  3  1  0
  3  4  1  0
  4  5  1  0
  4  6  1  0
  6  7  1  0
  7  8  1  0
  8  9  1  0
  9 10  1  0
 10 11  1  0
  9 12  1  0
 12 13  1  0
 12  2  1  0
 10  3  1  0
  8  6  1  0
  1 14  1  0
  1 15  1  0
  1 16  1  0
  3 17  1  1
  4 18  1  1
  5 19  1  0
  6 20  1  1
  8 21  1  6
  9 22  1  6
 10 23  1  1
 11 24  1  0
 13 25  1  0
 13 26  1  0
 13 27  1  0
M  END
$$$$

     RDKit          3D

 27 29  0  0  0  0  0  0  0  0999 V2000
    1.7935   -1.5912   -0.6872 C   0  0  0  0  0  0  0  0  0  0  0  0
    0.8149   -0.5132   -0.6410 N   0  0  0  0  0  0  0  0  0  0  0  0
   -0.4911   -1.0290   -0.3088 C   0  0  2  0  0  0  0  0  0  0  0  0
   -1.5094   -0.2180   -1.0668 C   0  0  1  0  0  0  0  0  0  0  0  0
   -2.7737   -0.8264   -1.0733 O   0  0  0  0  0  0  0  0  0  0  0  0
   -1.6609    1.1779   -0.5900 C   0  0  1  0  0  0  0  0  0  0  0  0
   -2.3446    1.2240    0.7244 O   0  0  0  0  0  0  0  0  0  0  0  0
   -0.9236    1.6180    0.5293 C   0  0  1  0  0  0  0  0  0  0  0  0
    0.0590    0.6852    1.1567 C   0  0  1  0  0  0  0  0  0  0  0  0
   -0.6018   -0.7019    1.1864 C   0  0  2  0  0  0  0  0  0  0  0  0
    0.2102   -1.5780    1.8927 O   0  0  0  0  0  0  0  0  0  0  0  0
    1.1926    0.3920    0.3169 N   0  0  0  0  0  0  0  0  0  0  0  0
    1.9013    1.5310   -0.1468 C   0  0  0  0  0  0  0  0  0  0  0  0
    2.7714   -1.1066   -0.8977 H   0  0  0  0  0  0  0  0  0  0  0  0
    1.5868   -2.3221   -1.4760 H   0  0  0  0  0  0  0  0  0  0  0  0
    1.8911   -2.0993    0.2830 H   0  0  0  0  0  0  0  0  0  0  0  0
   -0.6192   -2.0911   -0.5082 H   0  0  0  0  0  0  0  0  0  0  0  0
   -1.1816   -0.1867   -2.1340 H   0  0  0  0  0  0  0  0  0  0  0  0
   -2.7946   -1.6132   -1.6782 H   0  0  0  0  0  0  0  0  0  0  0  0
   -2.1099    1.8803   -1.2984 H   0  0  0  0  0  0  0  0  0  0  0  0
   -0.7456    2.6878    0.7051 H   0  0  0  0  0  0  0  0  0  0  0  0
    0.3696    1.0129    2.1519 H   0  0  0  0  0  0  0  0  0  0  0  0
   -1.6337   -0.6620    1.5290 H   0  0  0  0  0  0  0  0  0  0  0  0
    0.4083   -1.1776    2.7734 H   0  0  0  0  0  0  0  0  0  0  0  0
    2.0749    2.2124    0.7069 H   0  0  0  0  0  0  0  0  0  0  0  0
    2.9064    1.2019   -0.4978 H   0  0  0  0  0  0  0  0  0  0  0  0
    1.4098    2.0931   -0.9515 H   0  0  0  0  0  0  0  0  0  0  0  0
  1  2  1  0
  2  3  1  0
  3  4  1  0
  4  5  1  0
  4  6  1  0
  6  7  1  0
  7  8  1  0
  8  9  1  0
  9 10  1  0
 10 11  1  0
  9 12  1  0
 12 13  1  0
 12  2  1  0
 10  3  1  0
  8  6  1  0
  1 14  1  0
  1 15  1  0
  1 16  1  0
  3 17  1  1
  4 18  1  6
  5 19  1  0
  6 20  1  6
  8 21  1  6
  9 22  1  1
 10 23  1  1
 11 24  1  0
 13 25  1  0
 13 26  1  0
 13 27  1  0
M  END
$$$$

     RDKit          3D

 27 29  0  0  0  0  0  0  0  0999 V2000
    2.4343   -0.1286   -0.6669 C   0  0  0  0  0  0  0  0  0  0  0  0
    1.0385    0.1418   -0.5352 N   0  0  0  0  0  0  0  0  0  0  0  0
    0.2484   -1.0408   -0.3670 C   0  0  2  0  0  0  0  0  0  0  0  0
   -1.0139   -0.8813   -1.1696 C   0  0  1  0  0  0  0  0  0  0  0  0
   -1.6607   -2.1050   -1.3921 O   0  0  0  0  0  0  0  0  0  0  0  0
   -1.9756    0.1053   -0.6154 C   0  0  1  0  0  0  0  0  0  0  0  0
   -2.5980   -0.3690    0.6044 O   0  0  0  0  0  0  0  0  0  0  0  0
   -1.6968    0.7479    0.6073 C   0  0  1  0  0  0  0  0  0  0  0  0
   -0.3454    0.5246    1.2479 C   0  0  1  0  0  0  0  0  0  0  0  0
   -0.0681   -0.9808    1.1338 C   0  0  2  0  0  0  0  0  0  0  0  0
    1.0779   -1.2284    1.8450 O   0  0  0  0  0  0  0  0  0  0  0  0
    0.6999    1.0600    0.4239 N   0  0  0  0  0  0  0  0  0  0  0  0
    0.4501    2.3804   -0.0649 C   0  0  0  0  0  0  0  0  0  0  0  0
    3.0341    0.5100   -0.0116 H   0  0  0  0  0  0  0  0  0  0  0  0
    2.6400   -1.2082   -0.4788 H   0  0  0  0  0  0  0  0  0  0  0  0
    2.7047    0.0704   -1.7449 H   0  0  0  0  0  0  0  0  0  0  0  0
    0.7589   -1.9727   -0.6021 H   0  0  0  0  0  0  0  0  0  0  0  0
   -0.6990   -0.5138   -2.1897 H   0  0  0  0  0  0  0  0  0  0  0  0
   -1.0927   -2.8367   -1.0335 H   0  0  0  0  0  0  0  0  0  0  0  0
   -2.6749    0.5718   -1.3480 H   0  0  0  0  0  0  0  0  0  0  0  0
   -2.1965    1.6696    0.8994 H   0  0  0  0  0  0  0  0  0  0  0  0
   -0.2936    0.8780    2.2767 H   0  0  0  0  0  0  0  0  0  0  0  0
   -0.9346   -1.5812    1.4013 H   0  0  0  0  0  0  0  0  0  0  0  0
    1.0547   -2.0743    2.3613 H   0  0  0  0  0  0  0  0  0  0  0  0
    1.0185    2.5624   -0.9938 H   0  0  0  0  0  0  0  0  0  0  0  0
   -0.6332    2.5560   -0.2935 H   0  0  0  0  0  0  0  0  0  0  0  0
    0.7229    3.1426    0.7061 H   0  0  0  0  0  0  0  0  0  0  0  0
  1  2  1  0
  2  3  1  0
  3  4  1  0
  4  5  1  0
  4  6  1  0
  6  7  1  0
  7  8  1  0
  8  9  1  0
  9 10  1  0
 10 11  1  0
  9 12  1  0
 12 13  1  0
 12  2  1  0
 10  3  1  0
  8  6  1  0
  1 14  1  0
  1 15  1  0
  1 16  1  0
  3 17  1  1
  4 18  1  6
  5 19  1  0
  6 20  1  6
  8 21  1  6
  9 22  1  1
 10 23  1  6
 11 24  1  0
 13 25  1  0
 13 26  1  0
 13 27  1  0
M  END
$$$$

     RDKit          3D

 27 29  0  0  0  0  0  0  0  0999 V2000
   -1.3917   -1.3660   -1.3123 C   0  0  0  0  0  0  0  0  0  0  0  0
   -0.9658   -0.0910   -0.8305 N   0  0  0  0  0  0  0  0  0  0  0  0
    0.4309    0.1983   -1.1113 C   0  0  2  0  0  0  0  0  0  0  0  0
    1.3633   -0.8130   -0.5498 C   0  0  1  0  0  0  0  0  0  0  0  0
    2.6398   -0.5562   -1.0687 O   0  0  0  0  0  0  0  0  0  0  0  0
    1.4588   -0.8703    0.9216 C   0  0  1  0  0  0  0  0  0  0  0  0
    2.2763    0.3025    1.4007 O   0  0  0  0  0  0  0  0  0  0  0  0
    0.9569    0.1593    1.7326 C   0  0  1  0  0  0  0  0  0  0  0  0
   -0.0995    0.9897    0.9962 C   0  0  1  0  0  0  0  0  0  0  0  0
    0.5931    1.4766   -0.2725 C   0  0  2  0  0  0  0  0  0  0  0  0
   -0.0896    2.5063   -0.8841 O   0  0  0  0  0  0  0  0  0  0  0  0
   -1.0826    0.0311    0.5324 N   0  0  0  0  0  0  0  0  0  0  0  0
   -2.3978    0.2911    1.0172 C   0  0  0  0  0  0  0  0  0  0  0  0
   -0.8284   -1.7397   -2.1752 H   0  0  0  0  0  0  0  0  0  0  0  0
   -2.4795   -1.2905   -1.5968 H   0  0  0  0  0  0  0  0  0  0  0  0
   -1.3639   -2.0810   -0.4647 H   0  0  0  0  0  0  0  0  0  0  0  0
    0.6290    0.3720   -2.1684 H   0  0  0  0  0  0  0  0  0  0  0  0
    1.0840   -1.8328   -0.9388 H   0  0  0  0  0  0  0  0  0  0  0  0
    3.2698   -1.2824   -0.9128 H   0  0  0  0  0  0  0  0  0  0  0  0
    1.8339   -1.8179    1.3603 H   0  0  0  0  0  0  0  0  0  0  0  0
    0.6454   -0.0445    2.7799 H   0  0  0  0  0  0  0  0  0  0  0  0
   -0.5012    1.7904    1.6024 H   0  0  0  0  0  0  0  0  0  0  0  0
    1.6580    1.6590   -0.1314 H   0  0  0  0  0  0  0  0  0  0  0  0
    0.5378    2.9361   -1.5230 H   0  0  0  0  0  0  0  0  0  0  0  0
   -2.2837    0.8423    1.9966 H   0  0  0  0  0  0  0  0  0  0  0  0
   -2.9712    0.8901    0.2976 H   0  0  0  0  0  0  0  0  0  0  0  0
   -2.9221   -0.6593    1.3026 H   0  0  0  0  0  0  0  0  0  0  0  0
  1  2  1  0
  2  3  1  0
  3  4  1  0
  4  5  1  0
  4  6  1  0
  6  7  1  0
  7  8  1  0
  8  9  1  0
  9 10  1  0
 10 11  1  0
  9 12  1  0
 12 13  1  0
 12  2  1  0
 10  3  1  0
  8  6  1  0
  1 14  1  0
  1 15  1  0
  1 16  1  0
  3 17  1  6
  4 18  1  6
  5 19  1  0
  6 20  1  1
  8 21  1  1
  9 22  1  1
 10 23  1  1
 11 24  1  0
 13 25  1  0
 13 26  1  0
 13 27  1  0
M  END
$$$$

     RDKit          3D

 27 29  0  0  0  0  0  0  0  0999 V2000
    2.1653   -1.0557    0.2140 C   0  0  0  0  0  0  0  0  0  0  0  0
    0.8959   -0.6545   -0.2231 N   0  0  0  0  0  0  0  0  0  0  0  0
   -0.0792   -0.6966    0.8547 C   0  0  2  0  0  0  0  0  0  0  0  0
   -1.3093   -1.3615    0.3090 C   0  0  1  0  0  0  0  0  0  0  0  0
   -2.0423   -2.0199    1.3101 O   0  0  0  0  0  0  0  0  0  0  0  0
   -2.1733   -0.4762   -0.5176 C   0  0  1  0  0  0  0  0  0  0  0  0
   -2.7607    0.6498    0.0179 O   0  0  0  0  0  0  0  0  0  0  0  0
   -1.6634    0.7700   -0.9761 C   0  0  1  0  0  0  0  0  0  0  0  0
   -0.3653    1.2449   -0.4034 C   0  0  1  0  0  0  0  0  0  0  0  0
   -0.3437    0.8008    1.0671 C   0  0  2  0  0  0  0  0  0  0  0  0
    0.6974    1.3694    1.7615 O   0  0  0  0  0  0  0  0  0  0  0  0
    0.7219    0.4571   -0.9304 N   0  0  0  0  0  0  0  0  0  0  0  0
    1.8016    1.1708   -1.4552 C   0  0  0  0  0  0  0  0  0  0  0  0
    3.0222   -0.7407   -0.3801 H   0  0  0  0  0  0  0  0  0  0  0  0
    2.4051   -0.7731    1.2806 H   0  0  0  0  0  0  0  0  0  0  0  0
    2.1976   -2.1865    0.2284 H   0  0  0  0  0  0  0  0  0  0  0  0
    0.3007   -1.1404    1.7725 H   0  0  0  0  0  0  0  0  0  0  0  0
   -0.9450   -2.1907   -0.3662 H   0  0  0  0  0  0  0  0  0  0  0  0
   -2.6323   -2.6654    0.8132 H   0  0  0  0  0  0  0  0  0  0  0  0
   -2.8742   -1.0455   -1.1963 H   0  0  0  0  0  0  0  0  0  0  0  0
   -2.0658    1.2455   -1.8754 H   0  0  0  0  0  0  0  0  0  0  0  0
   -0.2093    2.3293   -0.5025 H   0  0  0  0  0  0  0  0  0  0  0  0
   -1.3189    0.9848    1.5294 H   0  0  0  0  0  0  0  0  0  0  0  0
    0.3656    1.7102    2.6313 H   0  0  0  0  0  0  0  0  0  0  0  0
    1.4869    2.2460   -1.6081 H   0  0  0  0  0  0  0  0  0  0  0  0
    2.0040    0.8063   -2.5059 H   0  0  0  0  0  0  0  0  0  0  0  0
    2.7185    1.2219   -0.8493 H   0  0  0  0  0  0  0  0  0  0  0  0
  1  2  1  0
  2  3  1  0
  3  4  1  0
  4  5  1  0
  4  6  1  0
  6  7  1  0
  7  8  1  0
  8  9  1  0
  9 10  1  0
 10 11  1  0
  9 12  1  0
 12 13  1  0
 12  2  1  0
 10  3  1  0
  8  6  1  0
  1 14  1  0
  1 15  1  0
  1 16  1  0
  3 17  1  1
  4 18  1  6
  5 19  1  0
  6 20  1  6
  8 21  1  6
  9 22  1  1
 10 23  1  1
 11 24  1  0
 13 25  1  0
 13 26  1  0
 13 27  1  0
M  END
$$$$

     RDKit          3D

 27 29  0  0  0  0  0  0  0  0999 V2000
   -1.4200   -1.8350   -0.3646 C   0  0  0  0  0  0  0  0  0  0  0  0
   -0.9305   -0.5182   -0.4737 N   0  0  0  0  0  0  0  0  0  0  0  0
    0.3718   -0.3535   -1.0096 C   0  0  2  0  0  0  0  0  0  0  0  0
    1.4506   -1.1142   -0.2826 C   0  0  1  0  0  0  0  0  0  0  0  0
    2.6718   -0.7234   -0.8831 O   0  0  0  0  0  0  0  0  0  0  0  0
    1.5473   -0.7842    1.1629 C   0  0  1  0  0  0  0  0  0  0  0  0
    2.3505    0.4182    1.4253 O   0  0  0  0  0  0  0  0  0  0  0  0
    1.0003    0.4114    1.6620 C   0  0  1  0  0  0  0  0  0  0  0  0
    0.0595    1.1552    0.7316 C   0  0  1  0  0  0  0  0  0  0  0  0
    0.6343    1.1278   -0.6918 C   0  0  2  0  0  0  0  0  0  0  0  0
   -0.1632    1.8967   -1.5131 O   0  0  0  0  0  0  0  0  0  0  0  0
   -1.1192    0.3108    0.5917 N   0  0  0  0  0  0  0  0  0  0  0  0
   -2.3321    1.0747    0.5347 C   0  0  0  0  0  0  0  0  0  0  0  0
   -2.5463   -1.7971   -0.4488 H   0  0  0  0  0  0  0  0  0  0  0  0
   -1.0896   -2.4247   -1.2386 H   0  0  0  0  0  0  0  0  0  0  0  0
   -1.1578   -2.3720    0.5583 H   0  0  0  0  0  0  0  0  0  0  0  0
    0.4054   -0.5627   -2.0739 H   0  0  0  0  0  0  0  0  0  0  0  0
    1.3754   -2.2085   -0.4870 H   0  0  0  0  0  0  0  0  0  0  0  0
    2.5220   -0.6167   -1.8573 H   0  0  0  0  0  0  0  0  0  0  0  0
    1.8302   -1.6382    1.8202 H   0  0  0  0  0  0  0  0  0  0  0  0
    0.6287    0.4461    2.7281 H   0  0  0  0  0  0  0  0  0  0  0  0
   -0.1734    2.1659    1.0612 H   0  0  0  0  0  0  0  0  0  0  0  0
    1.6955    1.3712   -0.7133 H   0  0  0  0  0  0  0  0  0  0  0  0
    0.2946    2.7593   -1.7056 H   0  0  0  0  0  0  0  0  0  0  0  0
   -2.2089    2.0781    1.0121 H   0  0  0  0  0  0  0  0  0  0  0  0
   -2.5547    1.2489   -0.5568 H   0  0  0  0  0  0  0  0  0  0  0  0
   -3.1422    0.4838    1.0117 H   0  0  0  0  0  0  0  0  0  0  0  0
  1  2  1  0
  2  3  1  0
  3  4  1  0
  4  5  1  0
  4  6  1  0
  6  7  1  0
  7  8  1  0
  8  9  1  0
  9 10  1  0
 10 11  1  0
  9 12  1  0
 12 13  1  0
 12  2  1  0
 10  3  1  0
  8  6  1  0
  1 14  1  0
  1 15  1  0
  1 16  1  0
  3 17  1  6
  4 18  1  1
  5 19  1  0
  6 20  1  1
  8 21  1  1
  9 22  1  1
 10 23  1  1
 11 24  1  0
 13 25  1  0
 13 26  1  0
 13 27  1  0
M  END
$$$$
