
     RDKit          3D

 23 22  0  0  0  0  0  0  0  0999 V2000
    2.7422    1.1183   -0.5796 N   0  0  0  0  0  0  0  0  0  0  0  0
    1.8740    0.7119    0.4961 C   0  0  0  0  0  0  0  0  0  0  0  0
    1.7912    1.5713    1.4047 O   0  0  0  0  0  0  0  0  0  0  0  0
    1.2297   -0.5652    0.4177 C   0  0  2  0  0  0  0  0  0  0  0  0
    1.8608   -1.2643   -0.6736 O   0  0  0  0  0  0  0  0  0  0  0  0
   -0.2108   -0.6959    0.1210 C   0  0  1  0  0  0  0  0  0  0  0  0
   -0.3845   -2.1979    0.1068 N   0  0  0  0  0  0  0  0  0  0  0  0
   -1.2147   -0.1997    1.0953 C   0  0  2  0  0  0  0  0  0  0  0  0
   -2.4669   -0.7272    0.5782 O   0  0  0  0  0  0  0  0  0  0  0  0
   -1.4962    1.3027    1.0019 C   0  0  0  0  0  0  0  0  0  0  0  0
   -1.7110    1.6347   -0.3331 O   0  0  0  0  0  0  0  0  0  0  0  0
    3.5073    0.5004   -0.9358 H   0  0  0  0  0  0  0  0  0  0  0  0
    2.6417    2.0458   -1.0460 H   0  0  0  0  0  0  0  0  0  0  0  0
    1.4720   -1.1775    1.3200 H   0  0  0  0  0  0  0  0  0  0  0  0
    1.8070   -0.6347   -1.4330 H   0  0  0  0  0  0  0  0  0  0  0  0
   -0.4678   -0.3336   -0.8908 H   0  0  0  0  0  0  0  0  0  0  0  0
   -0.1274   -2.5436   -0.8437 H   0  0  0  0  0  0  0  0  0  0  0  0
   -1.3295   -2.4401    0.4048 H   0  0  0  0  0  0  0  0  0  0  0  0
   -1.1715   -0.5819    2.1079 H   0  0  0  0  0  0  0  0  0  0  0  0
   -2.4432   -0.4666   -0.3715 H   0  0  0  0  0  0  0  0  0  0  0  0
   -2.4930    1.4349    1.5232 H   0  0  0  0  0  0  0  0  0  0  0  0
   -0.7607    1.9500    1.4284 H   0  0  0  0  0  0  0  0  0  0  0  0
   -2.6485    1.5580   -0.6126 H   0  0  0  0  0  0  0  0  0  0  0  0
  1  2  1  0
  2  3  2  0
  2  4  1  0
  4  5  1  0
  4  6  1  0
  6  7  1  0
  6  8  1  0
  8  9  1  0
  8 10  1  0
 10 11  1  0
  1 12  1  0
  1 13  1  0
  4 14  1  1
  5 15  1  0
  6 16  1  6
  7 17  1  0
  7 18  1  0
  8 19  1  1
  9 20  1  0
 10 21  1  0
 10 22  1  0
 11 23  1  0
M  END
$$$$

     RDKit          3D

 23 22  0  0  0  0  0  0  0  0999 V2000
    2.8490    1.1186   -0.4224 N   0  0  0  0  0  0  0  0  0  0  0  0
    2.4685   -0.1592    0.0519 C   0  0  0  0  0  0  0  0  0  0  0  0
    3.2472   -1.1281   -0.1039 O   0  0  0  0  0  0  0  0  0  0  0  0
    1.1660   -0.3653    0.7279 C   0  0  2  0  0  0  0  0  0  0  0  0
    1.0063   -1.6781    1.1042 O   0  0  0  0  0  0  0  0  0  0  0  0
    0.0122    0.1070   -0.1373 C   0  0  1  0  0  0  0  0  0  0  0  0
   -0.0440   -0.7108   -1.3143 N   0  0  0  0  0  0  0  0  0  0  0  0
   -1.2790    0.0231    0.6708 C   0  0  2  0  0  0  0  0  0  0  0  0
   -1.4510   -1.3058    1.0383 O   0  0  0  0  0  0  0  0  0  0  0  0
   -2.4407    0.4251   -0.2073 C   0  0  0  0  0  0  0  0  0  0  0  0
   -2.3675    1.7279   -0.6280 O   0  0  0  0  0  0  0  0  0  0  0  0
    3.6183    1.2244   -1.1280 H   0  0  0  0  0  0  0  0  0  0  0  0
    2.3570    1.9627   -0.0646 H   0  0  0  0  0  0  0  0  0  0  0  0
    1.1337    0.2584    1.6502 H   0  0  0  0  0  0  0  0  0  0  0  0
    1.8686   -2.1174    1.2893 H   0  0  0  0  0  0  0  0  0  0  0  0
    0.2257    1.1474   -0.4579 H   0  0  0  0  0  0  0  0  0  0  0  0
   -0.7586   -0.3707   -1.9672 H   0  0  0  0  0  0  0  0  0  0  0  0
   -0.1102   -1.7167   -1.0968 H   0  0  0  0  0  0  0  0  0  0  0  0
   -1.2487    0.7183    1.5263 H   0  0  0  0  0  0  0  0  0  0  0  0
   -2.3989   -1.5944    0.9813 H   0  0  0  0  0  0  0  0  0  0  0  0
   -3.3746    0.3336    0.4139 H   0  0  0  0  0  0  0  0  0  0  0  0
   -2.5871   -0.2292   -1.0741 H   0  0  0  0  0  0  0  0  0  0  0  0
   -1.8919    2.3293   -0.0160 H   0  0  0  0  0  0  0  0  0  0  0  0
  1  2  1  0
  2  3  2  0
  2  4  1  0
  4  5  1  0
  4  6  1  0
  6  7  1  0
  6  8  1  0
  8  9  1  0
  8 10  1  0
 10 11  1  0
  1 12  1  0
  1 13  1  0
  4 14  1  1
  5 15  1  0
  6 16  1  6
  7 17  1  0
  7 18  1  0
  8 19  1  1
  9 20  1  0
 10 21  1  0
 10 22  1  0
 11 23  1  0
M  END
$$$$

     RDKit          3D

 23 22  0  0  0  0  0  0  0  0999 V2000
    2.1268    1.1292   -0.5548 N   0  0  0  0  0  0  0  0  0  0  0  0
    1.7752   -0.2321   -0.4956 C   0  0  0  0  0  0  0  0  0  0  0  0
    2.2345   -0.9875   -1.3763 O   0  0  0  0  0  0  0  0  0  0  0  0
    0.9139   -0.7378    0.5483 C   0  0  2  0  0  0  0  0  0  0  0  0
    0.7805   -2.1259    0.3841 O   0  0  0  0  0  0  0  0  0  0  0  0
   -0.4308   -0.0871    0.7085 C   0  0  1  0  0  0  0  0  0  0  0  0
   -0.4316    1.3142    0.8892 N   0  0  0  0  0  0  0  0  0  0  0  0
   -1.4433   -0.4961   -0.3133 C   0  0  2  0  0  0  0  0  0  0  0  0
   -1.4481   -1.8977   -0.4980 O   0  0  0  0  0  0  0  0  0  0  0  0
   -1.3620    0.1991   -1.6289 C   0  0  0  0  0  0  0  0  0  0  0  0
   -1.3629    1.5860   -1.5449 O   0  0  0  0  0  0  0  0  0  0  0  0
    2.5700    1.6133    0.2502 H   0  0  0  0  0  0  0  0  0  0  0  0
    1.9487    1.6853   -1.4142 H   0  0  0  0  0  0  0  0  0  0  0  0
    1.4220   -0.6197    1.5451 H   0  0  0  0  0  0  0  0  0  0  0  0
    1.5501   -2.5256   -0.0817 H   0  0  0  0  0  0  0  0  0  0  0  0
   -0.8248   -0.5257    1.6825 H   0  0  0  0  0  0  0  0  0  0  0  0
    0.0699    1.9065    0.2363 H   0  0  0  0  0  0  0  0  0  0  0  0
   -0.2262    1.5381    1.9045 H   0  0  0  0  0  0  0  0  0  0  0  0
   -2.4452   -0.2710    0.1236 H   0  0  0  0  0  0  0  0  0  0  0  0
   -1.6778   -2.3142    0.3904 H   0  0  0  0  0  0  0  0  0  0  0  0
   -0.4770   -0.0817   -2.2338 H   0  0  0  0  0  0  0  0  0  0  0  0
   -2.3060   -0.0674   -2.1863 H   0  0  0  0  0  0  0  0  0  0  0  0
   -0.9557    1.9977   -2.3317 H   0  0  0  0  0  0  0  0  0  0  0  0
  1  2  1  0
  2  3  2  0
  2  4  1  0
  4  5  1  0
  4  6  1  0
  6  7  1  0
  6  8  1  0
  8  9  1  0
  8 10  1  0
 10 11  1  0
  1 12  1  0
  1 13  1  0
  4 14  1  1
  5 15  1  0
  6 16  1  1
  7 17  1  0
  7 18  1  0
  8 19  1  1
  9 20  1  0
 10 21  1  0
 10 22  1  0
 11 23  1  0
M  END
$$$$

     RDKit          3D

 23 22  0  0  0  0  0  0  0  0999 V2000
    2.9987    0.7936    0.0592 N   0  0  0  0  0  0  0  0  0  0  0  0
    1.8053    0.4213    0.7771 C   0  0  0  0  0  0  0  0  0  0  0  0
    1.5791    1.1561    1.7716 O   0  0  0  0  0  0  0  0  0  0  0  0
    0.9603   -0.6980    0.3720 C   0  0  2  0  0  0  0  0  0  0  0  0
    1.8604   -1.4104   -0.5462 O   0  0  0  0  0  0  0  0  0  0  0  0
   -0.1965   -0.4598   -0.5125 C   0  0  1  0  0  0  0  0  0  0  0  0
   -0.5260   -1.8998   -0.9468 N   0  0  0  0  0  0  0  0  0  0  0  0
   -1.5003    0.0137   -0.0490 C   0  0  2  0  0  0  0  0  0  0  0  0
   -2.3522   -0.1801   -1.2374 O   0  0  0  0  0  0  0  0  0  0  0  0
   -1.7533    1.4328    0.2699 C   0  0  0  0  0  0  0  0  0  0  0  0
   -1.1551    1.8961    1.4002 O   0  0  0  0  0  0  0  0  0  0  0  0
    3.7928    0.1600    0.0569 H   0  0  0  0  0  0  0  0  0  0  0  0
    3.0007    1.6950   -0.4280 H   0  0  0  0  0  0  0  0  0  0  0  0
    0.8283   -1.4032    1.1923 H   0  0  0  0  0  0  0  0  0  0  0  0
    2.5023   -1.9031    0.0085 H   0  0  0  0  0  0  0  0  0  0  0  0
    0.1421   -0.0128   -1.4642 H   0  0  0  0  0  0  0  0  0  0  0  0
   -1.4269   -1.8511   -1.4745 H   0  0  0  0  0  0  0  0  0  0  0  0
   -0.7281   -2.4261   -0.0696 H   0  0  0  0  0  0  0  0  0  0  0  0
   -1.9974   -0.6307    0.6987 H   0  0  0  0  0  0  0  0  0  0  0  0
   -1.8468    0.3321   -1.9140 H   0  0  0  0  0  0  0  0  0  0  0  0
   -2.8724    1.4990    0.4758 H   0  0  0  0  0  0  0  0  0  0  0  0
   -1.6440    2.1174   -0.6077 H   0  0  0  0  0  0  0  0  0  0  0  0
   -1.4709    1.3579    2.1678 H   0  0  0  0  0  0  0  0  0  0  0  0
  1  2  1  0
  2  3  2  0
  2  4  1  0
  4  5  1  0
  4  6  1  0
  6  7  1  0
  6  8  1  0
  8  9  1  0
  8 10  1  0
 10 11  1  0
  1 12  1  0
  1 13  1  0
  4 14  1  1
  5 15  1  0
  6 16  1  6
  7 17  1  0
  7 18  1  0
  8 19  1  1
  9 20  1  0
 10 21  1  0
 10 22  1  0
 11 23  1  0
M  END
$$$$

     RDKit          3D

 23 22  0  0  0  0  0  0  0  0999 V2000
    2.9241    1.0498    0.2914 N   0  0  0  0  0  0  0  0  0  0  0  0
    1.7825    0.3327    0.8132 C   0  0  0  0  0  0  0  0  0  0  0  0
    1.4062    0.7073    1.9293 O   0  0  0  0  0  0  0  0  0  0  0  0
    1.1947   -0.7214    0.0235 C   0  0  2  0  0  0  0  0  0  0  0  0
    2.0643   -0.9958   -1.1112 O   0  0  0  0  0  0  0  0  0  0  0  0
   -0.1295   -0.5127   -0.6125 C   0  0  1  0  0  0  0  0  0  0  0  0
   -0.3984   -1.8014   -1.3650 N   0  0  0  0  0  0  0  0  0  0  0  0
   -1.3422   -0.3833    0.2306 C   0  0  2  0  0  0  0  0  0  0  0  0
   -2.4129   -0.3838   -0.7577 O   0  0  0  0  0  0  0  0  0  0  0  0
   -1.5616    0.9206    0.9292 C   0  0  0  0  0  0  0  0  0  0  0  0
   -1.4180    2.0111    0.0858 O   0  0  0  0  0  0  0  0  0  0  0  0
    3.8940    0.7822    0.4846 H   0  0  0  0  0  0  0  0  0  0  0  0
    2.6590    1.8832   -0.3133 H   0  0  0  0  0  0  0  0  0  0  0  0
    1.2031   -1.6809    0.5759 H   0  0  0  0  0  0  0  0  0  0  0  0
    1.9407   -0.2125   -1.7157 H   0  0  0  0  0  0  0  0  0  0  0  0
   -0.1598    0.2474   -1.4156 H   0  0  0  0  0  0  0  0  0  0  0  0
   -0.4029   -2.5255   -0.6190 H   0  0  0  0  0  0  0  0  0  0  0  0
   -1.3730   -1.7162   -1.7570 H   0  0  0  0  0  0  0  0  0  0  0  0
   -1.5815   -1.2293    0.8725 H   0  0  0  0  0  0  0  0  0  0  0  0
   -3.2565   -0.5468   -0.2976 H   0  0  0  0  0  0  0  0  0  0  0  0
   -1.1413    1.0487    1.9168 H   0  0  0  0  0  0  0  0  0  0  0  0
   -2.7008    0.9231    1.1467 H   0  0  0  0  0  0  0  0  0  0  0  0
   -1.1901    2.8034    0.6652 H   0  0  0  0  0  0  0  0  0  0  0  0
  1  2  1  0
  2  3  2  0
  2  4  1  0
  4  5  1  0
  4  6  1  0
  6  7  1  0
  6  8  1  0
  8  9  1  0
  8 10  1  0
 10 11  1  0
  1 12  1  0
  1 13  1  0
  4 14  1  1
  5 15  1  0
  6 16  1  6
  7 17  1  0
  7 18  1  0
  8 19  1  1
  9 20  1  0
 10 21  1  0
 10 22  1  0
 11 23  1  0
M  END
$$$$

     RDKit          3D

 23 22  0  0  0  0  0  0  0  0999 V2000
    1.9932   -1.8597    0.7120 N   0  0  0  0  0  0  0  0  0  0  0  0
    2.1074   -0.7174   -0.1035 C   0  0  0  0  0  0  0  0  0  0  0  0
    3.2273   -0.2015   -0.3096 O   0  0  0  0  0  0  0  0  0  0  0  0
    0.9168   -0.1012   -0.7334 C   0  0  2  0  0  0  0  0  0  0  0  0
    1.2804    1.0108   -1.4891 O   0  0  0  0  0  0  0  0  0  0  0  0
   -0.0182    0.2779    0.3936 C   0  0  1  0  0  0  0  0  0  0  0  0
    0.5833    1.2272    1.3045 N   0  0  0  0  0  0  0  0  0  0  0  0
   -1.2439    0.9650   -0.1807 C   0  0  2  0  0  0  0  0  0  0  0  0
   -2.0695    1.2647    0.9060 O   0  0  0  0  0  0  0  0  0  0  0  0
   -1.9734    0.0258   -1.1470 C   0  0  0  0  0  0  0  0  0  0  0  0
   -2.2763   -1.1298   -0.4427 O   0  0  0  0  0  0  0  0  0  0  0  0
    1.1645   -2.4930    0.6611 H   0  0  0  0  0  0  0  0  0  0  0  0
    2.7430   -2.1159    1.4046 H   0  0  0  0  0  0  0  0  0  0  0  0
    0.4153   -0.8789   -1.3361 H   0  0  0  0  0  0  0  0  0  0  0  0
    2.0456    1.4252   -1.0257 H   0  0  0  0  0  0  0  0  0  0  0  0
   -0.3146   -0.6315    0.9179 H   0  0  0  0  0  0  0  0  0  0  0  0
    0.3385    1.0615    2.2943 H   0  0  0  0  0  0  0  0  0  0  0  0
    1.6025    1.3576    1.1358 H   0  0  0  0  0  0  0  0  0  0  0  0
   -0.9472    1.8905   -0.6813 H   0  0  0  0  0  0  0  0  0  0  0  0
   -2.0287    0.5749    1.5971 H   0  0  0  0  0  0  0  0  0  0  0  0
   -2.9268    0.5144   -1.4596 H   0  0  0  0  0  0  0  0  0  0  0  0
   -1.3681   -0.2104   -2.0231 H   0  0  0  0  0  0  0  0  0  0  0  0
   -3.2510   -1.2560   -0.3952 H   0  0  0  0  0  0  0  0  0  0  0  0
  1  2  1  0
  2  3  2  0
  2  4  1  0
  4  5  1  0
  4  6  1  0
  6  7  1  0
  6  8  1  0
  8  9  1  0
  8 10  1  0
 10 11  1  0
  1 12  1  0
  1 13  1  0
  4 14  1  6
  5 15  1  0
  6 16  1  1
  7 17  1  0
  7 18  1  0
  8 19  1  6
  9 20  1  0
 10 21  1  0
 10 22  1  0
 11 23  1  0
M  END
$$$$

     RDKit          3D

 23 22  0  0  0  0  0  0  0  0999 V2000
    2.0158    1.2223   -1.4554 N   0  0  0  0  0  0  0  0  0  0  0  0
    1.6126    0.7745   -0.1621 C   0  0  0  0  0  0  0  0  0  0  0  0
    1.5961    1.6527    0.7395 O   0  0  0  0  0  0  0  0  0  0  0  0
    1.2355   -0.6364    0.1091 C   0  0  2  0  0  0  0  0  0  0  0  0
    1.3373   -1.3678   -1.0673 O   0  0  0  0  0  0  0  0  0  0  0  0
   -0.0973   -0.7882    0.7750 C   0  0  1  0  0  0  0  0  0  0  0  0
   -0.1702   -0.0138    1.9929 N   0  0  0  0  0  0  0  0  0  0  0  0
   -1.2639   -0.5685   -0.1170 C   0  0  2  0  0  0  0  0  0  0  0  0
   -1.1970   -1.3001   -1.2760 O   0  0  0  0  0  0  0  0  0  0  0  0
   -1.5298    0.8869   -0.4176 C   0  0  0  0  0  0  0  0  0  0  0  0
   -1.6014    1.6578    0.7350 O   0  0  0  0  0  0  0  0  0  0  0  0
    2.7153    0.6936   -2.0402 H   0  0  0  0  0  0  0  0  0  0  0  0
    1.5815    2.1077   -1.8001 H   0  0  0  0  0  0  0  0  0  0  0  0
    2.0487   -1.0566    0.7743 H   0  0  0  0  0  0  0  0  0  0  0  0
    1.3862   -2.3461   -0.8769 H   0  0  0  0  0  0  0  0  0  0  0  0
   -0.1486   -1.8671    1.1115 H   0  0  0  0  0  0  0  0  0  0  0  0
   -1.1057   -0.1498    2.4338 H   0  0  0  0  0  0  0  0  0  0  0  0
    0.5212   -0.4521    2.6625 H   0  0  0  0  0  0  0  0  0  0  0  0
   -2.1872   -0.9312    0.4257 H   0  0  0  0  0  0  0  0  0  0  0  0
   -1.3231   -2.2693   -1.1449 H   0  0  0  0  0  0  0  0  0  0  0  0
   -2.5021    1.0211   -0.9395 H   0  0  0  0  0  0  0  0  0  0  0  0
   -0.7546    1.2816   -1.0993 H   0  0  0  0  0  0  0  0  0  0  0  0
   -2.1695    2.4488    0.6369 H   0  0  0  0  0  0  0  0  0  0  0  0
  1  2  1  0
  2  3  2  0
  2  4  1  0
  4  5  1  0
  4  6  1  0
  6  7  1  0
  6  8  1  0
  8  9  1  0
  8 10  1  0
 10 11  1  0
  1 12  1  0
  1 13  1  0
  4 14  1  1
  5 15  1  0
  6 16  1  1
  7 17  1  0
  7 18  1  0
  8 19  1  1
  9 20  1  0
 10 21  1  0
 10 22  1  0
 11 23  1  0
M  END
$$$$

     RDKit          3D

 23 22  0  0  0  0  0  0  0  0999 V2000
    3.0291    1.4012    0.9479 N   0  0  0  0  0  0  0  0  0  0  0  0
    1.8121    0.6700    1.0216 C   0  0  0  0  0  0  0  0  0  0  0  0
    1.0865    0.8669    2.0320 O   0  0  0  0  0  0  0  0  0  0  0  0
    1.3350   -0.2869    0.0269 C   0  0  2  0  0  0  0  0  0  0  0  0
    2.2654   -0.3832   -1.0270 O   0  0  0  0  0  0  0  0  0  0  0  0
    0.0180    0.0753   -0.6023 C   0  0  1  0  0  0  0  0  0  0  0  0
   -0.2967   -1.0187   -1.5375 N   0  0  0  0  0  0  0  0  0  0  0  0
   -1.1189    0.1238    0.3823 C   0  0  2  0  0  0  0  0  0  0  0  0
   -1.1938   -1.1099    1.0432 O   0  0  0  0  0  0  0  0  0  0  0  0
   -2.4153    0.2216   -0.4349 C   0  0  0  0  0  0  0  0  0  0  0  0
   -3.5229    0.1676    0.4109 O   0  0  0  0  0  0  0  0  0  0  0  0
    3.5486    1.6130    1.8280 H   0  0  0  0  0  0  0  0  0  0  0  0
    3.4487    1.7479    0.0621 H   0  0  0  0  0  0  0  0  0  0  0  0
    1.2429   -1.2776    0.4813 H   0  0  0  0  0  0  0  0  0  0  0  0
    2.8832   -1.1107   -0.8183 H   0  0  0  0  0  0  0  0  0  0  0  0
    0.0296    1.0030   -1.1776 H   0  0  0  0  0  0  0  0  0  0  0  0
   -0.5313   -1.8940   -1.0153 H   0  0  0  0  0  0  0  0  0  0  0  0
    0.6189   -1.2151   -2.0443 H   0  0  0  0  0  0  0  0  0  0  0  0
   -1.0417    0.9685    1.0739 H   0  0  0  0  0  0  0  0  0  0  0  0
   -1.9805   -1.1534    1.6417 H   0  0  0  0  0  0  0  0  0  0  0  0
   -2.4378   -0.5592   -1.2090 H   0  0  0  0  0  0  0  0  0  0  0  0
   -2.4586    1.1942   -0.9516 H   0  0  0  0  0  0  0  0  0  0  0  0
   -4.3205   -0.0443   -0.1341 H   0  0  0  0  0  0  0  0  0  0  0  0
  1  2  1  0
  2  3  2  0
  2  4  1  0
  4  5  1  0
  4  6  1  0
  6  7  1  0
  6  8  1  0
  8  9  1  0
  8 10  1  0
 10 11  1  0
  1 12  1  0
  1 13  1  0
  4 14  1  1
  5 15  1  0
  6 16  1  6
  7 17  1  0
  7 18  1  0
  8 19  1  1
  9 20  1  0
 10 21  1  0
 10 22  1  0
 11 23  1  0
M  END
$$$$
