
     RDKit          3D

 27 28  0  0  0  0  0  0  0  0999 V2000
    4.2336   -1.2950    1.2146 O   0  0  0  0  0  0  0  0  0  0  0  0
    3.2855   -0.6838    0.6405 C   0  0  0  0  0  0  0  0  0  0  0  0
    2.4180   -1.1544   -0.4672 C   0  0  0  0  0  0  0  0  0  0  0  0
    1.5286    0.0507   -0.7782 C   0  0  1  0  0  0  0  0  0  0  0  0
    0.1921   -0.2362   -0.1728 C   0  0  0  0  0  0  0  0  0  0  0  0
   -0.7833    0.8226   -0.3676 N   0  0  0  0  0  0  0  0  0  0  0  0
   -2.0493    0.2660    0.1049 C   0  0  0  0  0  0  0  0  0  0  0  0
   -3.2856    0.9536   -0.3761 C   0  0  0  0  0  0  0  0  0  0  0  0
   -3.8015   -0.3255   -0.8225 N   0  0  0  0  0  0  0  0  0  0  0  0
   -2.4666   -0.8195   -0.9057 C   0  0  0  0  0  0  0  0  0  0  0  0
    2.2800    1.1922   -0.1911 C   0  0  0  0  0  0  0  0  0  0  0  0
    2.8808    0.6469    0.9981 N   0  0  0  0  0  0  0  0  0  0  0  0
    2.9696   -1.4727   -1.3681 H   0  0  0  0  0  0  0  0  0  0  0  0
    1.8251   -2.0052   -0.0674 H   0  0  0  0  0  0  0  0  0  0  0  0
    1.4340    0.1437   -1.8916 H   0  0  0  0  0  0  0  0  0  0  0  0
    0.3183   -0.3894    0.9301 H   0  0  0  0  0  0  0  0  0  0  0  0
   -0.1647   -1.2133   -0.5722 H   0  0  0  0  0  0  0  0  0  0  0  0
   -0.8814    1.1565   -1.3243 H   0  0  0  0  0  0  0  0  0  0  0  0
   -2.0509   -0.0558    1.1450 H   0  0  0  0  0  0  0  0  0  0  0  0
   -3.1110    1.6386   -1.2323 H   0  0  0  0  0  0  0  0  0  0  0  0
   -3.8912    1.4238    0.4423 H   0  0  0  0  0  0  0  0  0  0  0  0
   -4.4187   -0.8300   -0.1613 H   0  0  0  0  0  0  0  0  0  0  0  0
   -2.2391   -1.8204   -0.5183 H   0  0  0  0  0  0  0  0  0  0  0  0
   -2.0366   -0.5962   -1.9077 H   0  0  0  0  0  0  0  0  0  0  0  0
    1.6664    2.0971   -0.0081 H   0  0  0  0  0  0  0  0  0  0  0  0
    3.1294    1.4103   -0.8860 H   0  0  0  0  0  0  0  0  0  0  0  0
    3.0183    1.0954    1.9409 H   0  0  0  0  0  0  0  0  0  0  0  0
  1  2  2  0
  2  3  1  0
  3  4  1  0
  4  5  1  0
  5  6  1  0
  6  7  1  0
  7  8  1  0
  8  9  1  0
  9 10  1  0
  4 11  1  0
 11 12  1  0
 12  2  1  0
 10  7  1  0
  3 13  1  0
  3 14  1  0
  4 15  1  6
  5 16  1  0
  5 17  1  0
  6 18  1  0
  7 19  1  0
  8 20  1  0
  8 21  1  0
  9 22  1  0
 10 23  1  0
 10 24  1  0
 11 25  1  0
 11 26  1  0
 12 27  1  0
M  END
$$$$

     RDKit          3D

 27 28  0  0  0  0  0  0  0  0999 V2000
    3.7452   -1.7908   -0.4438 O   0  0  0  0  0  0  0  0  0  0  0  0
    3.0039   -0.8068   -0.5993 C   0  0  0  0  0  0  0  0  0  0  0  0
    1.6153   -0.6938   -1.1511 C   0  0  0  0  0  0  0  0  0  0  0  0
    1.0025    0.4632   -0.3614 C   0  0  1  0  0  0  0  0  0  0  0  0
    0.3735   -0.1141    0.8982 C   0  0  0  0  0  0  0  0  0  0  0  0
   -0.6318   -1.0400    0.7325 N   0  0  0  0  0  0  0  0  0  0  0  0
   -1.9133   -0.8304    0.3146 C   0  0  0  0  0  0  0  0  0  0  0  0
   -2.8856   -0.0389    1.1522 C   0  0  0  0  0  0  0  0  0  0  0  0
   -3.6407    0.1345   -0.1190 N   0  0  0  0  0  0  0  0  0  0  0  0
   -2.2747    0.2117   -0.7233 C   0  0  0  0  0  0  0  0  0  0  0  0
    2.1846    1.3502   -0.0649 C   0  0  0  0  0  0  0  0  0  0  0  0
    3.3615    0.5331   -0.2520 N   0  0  0  0  0  0  0  0  0  0  0  0
    1.7115   -0.3834   -2.1951 H   0  0  0  0  0  0  0  0  0  0  0  0
    1.0511   -1.6323   -1.0311 H   0  0  0  0  0  0  0  0  0  0  0  0
    0.3046    0.9774   -1.0202 H   0  0  0  0  0  0  0  0  0  0  0  0
    0.1652    0.7658    1.5403 H   0  0  0  0  0  0  0  0  0  0  0  0
    1.2384   -0.6219    1.4295 H   0  0  0  0  0  0  0  0  0  0  0  0
   -0.3613   -2.0469    0.7521 H   0  0  0  0  0  0  0  0  0  0  0  0
   -2.4227   -1.8040    0.0318 H   0  0  0  0  0  0  0  0  0  0  0  0
   -3.4723   -0.5922    1.8885 H   0  0  0  0  0  0  0  0  0  0  0  0
   -2.5941    0.9458    1.5083 H   0  0  0  0  0  0  0  0  0  0  0  0
   -4.1283    1.0526   -0.1773 H   0  0  0  0  0  0  0  0  0  0  0  0
   -2.2649   -0.1683   -1.7512 H   0  0  0  0  0  0  0  0  0  0  0  0
   -1.9028    1.2257   -0.5314 H   0  0  0  0  0  0  0  0  0  0  0  0
    2.1635    1.8425    0.9063 H   0  0  0  0  0  0  0  0  0  0  0  0
    2.2509    2.1507   -0.8572 H   0  0  0  0  0  0  0  0  0  0  0  0
    4.3210    0.9105   -0.1409 H   0  0  0  0  0  0  0  0  0  0  0  0
  1  2  2  0
  2  3  1  0
  3  4  1  0
  4  5  1  0
  5  6  1  0
  6  7  1  0
  7  8  1  0
  8  9  1  0
  9 10  1  0
  4 11  1  0
 11 12  1  0
 12  2  1  0
 10  7  1  0
  3 13  1  0
  3 14  1  0
  4 15  1  6
  5 16  1  0
  5 17  1  0
  6 18  1  0
  7 19  1  0
  8 20  1  0
  8 21  1  0
  9 22  1  0
 10 23  1  0
 10 24  1  0
 11 25  1  0
 11 26  1  0
 12 27  1  0
M  END
$$$$

     RDKit          3D

 27 28  0  0  0  0  0  0  0  0999 V2000
   -4.3039   -1.1274   -1.5188 O   0  0  0  0  0  0  0  0  0  0  0  0
   -3.4200   -0.5827   -0.8148 C   0  0  0  0  0  0  0  0  0  0  0  0
   -1.9848   -0.9656   -0.7969 C   0  0  0  0  0  0  0  0  0  0  0  0
   -1.6077   -0.4806    0.6075 C   0  0  1  0  0  0  0  0  0  0  0  0
   -0.1428   -0.4762    0.8299 C   0  0  0  0  0  0  0  0  0  0  0  0
    0.6237    0.3466   -0.0523 N   0  0  0  0  0  0  0  0  0  0  0  0
    2.0246    0.1775    0.3432 C   0  0  0  0  0  0  0  0  0  0  0  0
    2.9093    1.3669    0.1196 C   0  0  0  0  0  0  0  0  0  0  0  0
    3.9606    0.4361   -0.2857 N   0  0  0  0  0  0  0  0  0  0  0  0
    2.9005   -0.5036   -0.6583 C   0  0  0  0  0  0  0  0  0  0  0  0
   -2.2710    0.8775    0.6104 C   0  0  0  0  0  0  0  0  0  0  0  0
   -3.5954    0.4906    0.0931 N   0  0  0  0  0  0  0  0  0  0  0  0
   -1.7881   -2.0227   -0.9378 H   0  0  0  0  0  0  0  0  0  0  0  0
   -1.4752   -0.3011   -1.5426 H   0  0  0  0  0  0  0  0  0  0  0  0
   -2.1426   -1.1441    1.3210 H   0  0  0  0  0  0  0  0  0  0  0  0
    0.2140   -1.5295    0.7418 H   0  0  0  0  0  0  0  0  0  0  0  0
    0.0980   -0.1861    1.8764 H   0  0  0  0  0  0  0  0  0  0  0  0
    0.5233    0.0320   -1.0483 H   0  0  0  0  0  0  0  0  0  0  0  0
    2.1435   -0.2784    1.3617 H   0  0  0  0  0  0  0  0  0  0  0  0
    3.1032    1.9019    1.0699 H   0  0  0  0  0  0  0  0  0  0  0  0
    2.5676    2.0155   -0.7150 H   0  0  0  0  0  0  0  0  0  0  0  0
    4.4861    0.0714    0.5350 H   0  0  0  0  0  0  0  0  0  0  0  0
    2.6368   -0.3500   -1.7207 H   0  0  0  0  0  0  0  0  0  0  0  0
    3.1348   -1.5567   -0.3991 H   0  0  0  0  0  0  0  0  0  0  0  0
   -1.7621    1.5135   -0.1267 H   0  0  0  0  0  0  0  0  0  0  0  0
   -2.3599    1.3167    1.6212 H   0  0  0  0  0  0  0  0  0  0  0  0
   -4.4723    0.9588    0.3820 H   0  0  0  0  0  0  0  0  0  0  0  0
  1  2  2  0
  2  3  1  0
  3  4  1  0
  4  5  1  0
  5  6  1  0
  6  7  1  0
  7  8  1  0
  8  9  1  0
  9 10  1  0
  4 11  1  0
 11 12  1  0
 12  2  1  0
 10  7  1  0
  3 13  1  0
  3 14  1  0
  4 15  1  1
  5 16  1  0
  5 17  1  0
  6 18  1  0
  7 19  1  0
  8 20  1  0
  8 21  1  0
  9 22  1  0
 10 23  1  0
 10 24  1  0
 11 25  1  0
 11 26  1  0
 12 27  1  0
M  END
$$$$

     RDKit          3D

 27 28  0  0  0  0  0  0  0  0999 V2000
    4.4228   -1.4185    0.4363 O   0  0  0  0  0  0  0  0  0  0  0  0
    3.4710   -0.6315    0.2758 C   0  0  0  0  0  0  0  0  0  0  0  0
    2.1212   -0.9921   -0.2771 C   0  0  0  0  0  0  0  0  0  0  0  0
    1.4469    0.3438   -0.4918 C   0  0  1  0  0  0  0  0  0  0  0  0
   -0.0006    0.3467   -0.0601 C   0  0  0  0  0  0  0  0  0  0  0  0
   -0.7893   -0.6014   -0.7595 N   0  0  0  0  0  0  0  0  0  0  0  0
   -2.1555   -0.6943   -0.4317 C   0  0  0  0  0  0  0  0  0  0  0  0
   -3.0156    0.5334   -0.6835 C   0  0  0  0  0  0  0  0  0  0  0  0
   -3.8341    0.0639    0.4451 N   0  0  0  0  0  0  0  0  0  0  0  0
   -2.5644   -0.4332    1.0083 C   0  0  0  0  0  0  0  0  0  0  0  0
    2.2039    1.3646    0.2947 C   0  0  0  0  0  0  0  0  0  0  0  0
    3.4996    0.7360    0.5849 N   0  0  0  0  0  0  0  0  0  0  0  0
    2.2981   -1.5357   -1.2247 H   0  0  0  0  0  0  0  0  0  0  0  0
    1.5918   -1.6287    0.4529 H   0  0  0  0  0  0  0  0  0  0  0  0
    1.4952    0.5453   -1.5892 H   0  0  0  0  0  0  0  0  0  0  0  0
   -0.3837    1.3657   -0.2143 H   0  0  0  0  0  0  0  0  0  0  0  0
   -0.0025    0.1051    1.0277 H   0  0  0  0  0  0  0  0  0  0  0  0
   -0.3175   -1.4093   -1.1544 H   0  0  0  0  0  0  0  0  0  0  0  0
   -2.7081   -1.5893   -0.7818 H   0  0  0  0  0  0  0  0  0  0  0  0
   -2.5312    1.4890   -0.3369 H   0  0  0  0  0  0  0  0  0  0  0  0
   -3.5260    0.5702   -1.6460 H   0  0  0  0  0  0  0  0  0  0  0  0
   -4.3567   -0.7909    0.0852 H   0  0  0  0  0  0  0  0  0  0  0  0
   -2.6929   -1.3398    1.6235 H   0  0  0  0  0  0  0  0  0  0  0  0
   -2.0505    0.4196    1.4815 H   0  0  0  0  0  0  0  0  0  0  0  0
    1.7517    1.6191    1.2736 H   0  0  0  0  0  0  0  0  0  0  0  0
    2.3233    2.2871   -0.3029 H   0  0  0  0  0  0  0  0  0  0  0  0
    4.3028    1.2751    0.9645 H   0  0  0  0  0  0  0  0  0  0  0  0
  1  2  2  0
  2  3  1  0
  3  4  1  0
  4  5  1  0
  5  6  1  0
  6  7  1  0
  7  8  1  0
  8  9  1  0
  9 10  1  0
  4 11  1  0
 11 12  1  0
 12  2  1  0
 10  7  1  0
  3 13  1  0
  3 14  1  0
  4 15  1  6
  5 16  1  0
  5 17  1  0
  6 18  1  0
  7 19  1  0
  8 20  1  0
  8 21  1  0
  9 22  1  0
 10 23  1  0
 10 24  1  0
 11 25  1  0
 11 26  1  0
 12 27  1  0
M  END
$$$$

     RDKit          3D

 27 28  0  0  0  0  0  0  0  0999 V2000
   -3.9121   -1.5174   -1.2589 O   0  0  0  0  0  0  0  0  0  0  0  0
   -3.1988   -0.7388   -0.6044 C   0  0  0  0  0  0  0  0  0  0  0  0
   -2.0667   -1.1320    0.2451 C   0  0  0  0  0  0  0  0  0  0  0  0
   -1.5221    0.1725    0.8579 C   0  0  1  0  0  0  0  0  0  0  0  0
   -0.1999    0.4626    0.1751 C   0  0  0  0  0  0  0  0  0  0  0  0
    0.7550   -0.6016    0.3841 N   0  0  0  0  0  0  0  0  0  0  0  0
    1.9136   -0.3334   -0.3804 C   0  0  0  0  0  0  0  0  0  0  0  0
    3.1689   -1.0971   -0.0022 C   0  0  0  0  0  0  0  0  0  0  0  0
    3.8820    0.0313   -0.6350 N   0  0  0  0  0  0  0  0  0  0  0  0
    2.7870    0.8410   -0.0385 C   0  0  0  0  0  0  0  0  0  0  0  0
   -2.4838    1.2529    0.4391 C   0  0  0  0  0  0  0  0  0  0  0  0
   -3.3543    0.6823   -0.5640 N   0  0  0  0  0  0  0  0  0  0  0  0
   -2.3984   -1.8468    1.0190 H   0  0  0  0  0  0  0  0  0  0  0  0
   -1.2965   -1.5837   -0.4450 H   0  0  0  0  0  0  0  0  0  0  0  0
   -1.3942    0.1179    1.9396 H   0  0  0  0  0  0  0  0  0  0  0  0
    0.2406    1.3908    0.5995 H   0  0  0  0  0  0  0  0  0  0  0  0
   -0.4263    0.6600   -0.8902 H   0  0  0  0  0  0  0  0  0  0  0  0
    0.8951   -0.8508    1.3569 H   0  0  0  0  0  0  0  0  0  0  0  0
    1.7682   -0.4231   -1.4850 H   0  0  0  0  0  0  0  0  0  0  0  0
    3.3193   -2.0416   -0.5373 H   0  0  0  0  0  0  0  0  0  0  0  0
    3.4110   -1.1023    1.0712 H   0  0  0  0  0  0  0  0  0  0  0  0
    3.6559   -0.0206   -1.6695 H   0  0  0  0  0  0  0  0  0  0  0  0
    3.0124    0.9947    1.0134 H   0  0  0  0  0  0  0  0  0  0  0  0
    2.5443    1.7389   -0.6387 H   0  0  0  0  0  0  0  0  0  0  0  0
   -3.1324    1.6141    1.2705 H   0  0  0  0  0  0  0  0  0  0  0  0
   -1.9645    2.1165   -0.0521 H   0  0  0  0  0  0  0  0  0  0  0  0
   -4.0029    1.2136   -1.1700 H   0  0  0  0  0  0  0  0  0  0  0  0
  1  2  2  0
  2  3  1  0
  3  4  1  0
  4  5  1  0
  5  6  1  0
  6  7  1  0
  7  8  1  0
  8  9  1  0
  9 10  1  0
  4 11  1  0
 11 12  1  0
 12  2  1  0
 10  7  1  0
  3 13  1  0
  3 14  1  0
  4 15  1  1
  5 16  1  0
  5 17  1  0
  6 18  1  0
  7 19  1  0
  8 20  1  0
  8 21  1  0
  9 22  1  0
 10 23  1  0
 10 24  1  0
 11 25  1  0
 11 26  1  0
 12 27  1  0
M  END
$$$$

     RDKit          3D

 27 28  0  0  0  0  0  0  0  0999 V2000
   -4.4250   -0.0512   -0.9264 O   0  0  0  0  0  0  0  0  0  0  0  0
   -3.2479    0.1228   -0.5021 C   0  0  0  0  0  0  0  0  0  0  0  0
   -2.2205   -0.9246   -0.1367 C   0  0  0  0  0  0  0  0  0  0  0  0
   -1.4606   -0.0841    0.9123 C   0  0  1  0  0  0  0  0  0  0  0  0
   -0.2676   -0.7533    1.4265 C   0  0  0  0  0  0  0  0  0  0  0  0
    0.7923   -1.1071    0.5774 N   0  0  0  0  0  0  0  0  0  0  0  0
    1.5698   -0.0283    0.1191 C   0  0  0  0  0  0  0  0  0  0  0  0
    2.3681   -0.1414   -1.1359 C   0  0  0  0  0  0  0  0  0  0  0  0
    3.4472    0.5777   -0.4142 N   0  0  0  0  0  0  0  0  0  0  0  0
    2.9847   -0.1239    0.7607 C   0  0  0  0  0  0  0  0  0  0  0  0
   -1.2829    1.1592    0.0851 C   0  0  0  0  0  0  0  0  0  0  0  0
   -2.6870    1.4141   -0.2928 N   0  0  0  0  0  0  0  0  0  0  0  0
   -1.5493   -1.0857   -0.9948 H   0  0  0  0  0  0  0  0  0  0  0  0
   -2.6932   -1.8039    0.2805 H   0  0  0  0  0  0  0  0  0  0  0  0
   -2.1917    0.1053    1.7485 H   0  0  0  0  0  0  0  0  0  0  0  0
   -0.5661   -1.6887    1.9952 H   0  0  0  0  0  0  0  0  0  0  0  0
    0.1594   -0.1061    2.2609 H   0  0  0  0  0  0  0  0  0  0  0  0
    0.6555   -1.9105   -0.0591 H   0  0  0  0  0  0  0  0  0  0  0  0
    1.2041    1.0118    0.2565 H   0  0  0  0  0  0  0  0  0  0  0  0
    2.0004    0.4324   -2.0195 H   0  0  0  0  0  0  0  0  0  0  0  0
    2.7689   -1.1397   -1.3793 H   0  0  0  0  0  0  0  0  0  0  0  0
    3.1225    1.5840   -0.3377 H   0  0  0  0  0  0  0  0  0  0  0  0
    3.2794   -1.1729    0.7672 H   0  0  0  0  0  0  0  0  0  0  0  0
    3.0495    0.4395    1.7141 H   0  0  0  0  0  0  0  0  0  0  0  0
   -0.8686    2.0245    0.6077 H   0  0  0  0  0  0  0  0  0  0  0  0
   -0.8074    0.9076   -0.8900 H   0  0  0  0  0  0  0  0  0  0  0  0
   -3.1340    2.3425   -0.3833 H   0  0  0  0  0  0  0  0  0  0  0  0
  1  2  2  0
  2  3  1  0
  3  4  1  0
  4  5  1  0
  5  6  1  0
  6  7  1  0
  7  8  1  0
  8  9  1  0
  9 10  1  0
  4 11  1  0
 11 12  1  0
 12  2  1  0
 10  7  1  0
  3 13  1  0
  3 14  1  0
  4 15  1  1
  5 16  1  0
  5 17  1  0
  6 18  1  0
  7 19  1  0
  8 20  1  0
  8 21  1  0
  9 22  1  0
 10 23  1  0
 10 24  1  0
 11 25  1  0
 11 26  1  0
 12 27  1  0
M  END
$$$$

     RDKit          3D

 27 28  0  0  0  0  0  0  0  0999 V2000
    4.5563   -0.5487   -1.0597 O   0  0  0  0  0  0  0  0  0  0  0  0
    3.5193   -0.3016   -0.4557 C   0  0  0  0  0  0  0  0  0  0  0  0
    2.1653   -0.2295   -1.0407 C   0  0  0  0  0  0  0  0  0  0  0  0
    1.4818    0.6361   -0.0617 C   0  0  1  0  0  0  0  0  0  0  0  0
   -0.0140    0.7161   -0.0584 C   0  0  0  0  0  0  0  0  0  0  0  0
   -0.6646   -0.5006    0.1837 N   0  0  0  0  0  0  0  0  0  0  0  0
   -1.9914   -0.4279    0.6701 C   0  0  0  0  0  0  0  0  0  0  0  0
   -3.1623   -1.0356    0.0268 C   0  0  0  0  0  0  0  0  0  0  0  0
   -3.5369    0.2179   -0.5939 N   0  0  0  0  0  0  0  0  0  0  0  0
   -2.7267    0.8750    0.4081 C   0  0  0  0  0  0  0  0  0  0  0  0
    1.9815   -0.0268    1.2299 C   0  0  0  0  0  0  0  0  0  0  0  0
    3.3913   -0.0165    0.9609 N   0  0  0  0  0  0  0  0  0  0  0  0
    1.7949   -1.3042   -0.9729 H   0  0  0  0  0  0  0  0  0  0  0  0
    2.1851    0.1287   -2.0935 H   0  0  0  0  0  0  0  0  0  0  0  0
    1.9041    1.6433   -0.1009 H   0  0  0  0  0  0  0  0  0  0  0  0
   -0.2720    1.4216    0.7396 H   0  0  0  0  0  0  0  0  0  0  0  0
   -0.3097    1.2271   -1.0282 H   0  0  0  0  0  0  0  0  0  0  0  0
   -0.2437   -1.3810    0.0460 H   0  0  0  0  0  0  0  0  0  0  0  0
   -1.9788   -0.6715    1.7979 H   0  0  0  0  0  0  0  0  0  0  0  0
   -3.0431   -1.9042   -0.6466 H   0  0  0  0  0  0  0  0  0  0  0  0
   -3.9693   -1.2386    0.8163 H   0  0  0  0  0  0  0  0  0  0  0  0
   -3.0626    0.2909   -1.5299 H   0  0  0  0  0  0  0  0  0  0  0  0
   -3.3002    1.1756    1.3400 H   0  0  0  0  0  0  0  0  0  0  0  0
   -2.1806    1.7163    0.0166 H   0  0  0  0  0  0  0  0  0  0  0  0
    1.6914   -1.1202    1.1965 H   0  0  0  0  0  0  0  0  0  0  0  0
    1.6441    0.4935    2.1043 H   0  0  0  0  0  0  0  0  0  0  0  0
    4.1406    0.1648    1.6307 H   0  0  0  0  0  0  0  0  0  0  0  0
  1  2  2  0
  2  3  1  0
  3  4  1  0
  4  5  1  0
  5  6  1  0
  6  7  1  0
  7  8  1  0
  8  9  1  0
  9 10  1  0
  4 11  1  0
 11 12  1  0
 12  2  1  0
 10  7  1  0
  3 13  1  0
  3 14  1  0
  4 15  1  1
  5 16  1  0
  5 17  1  0
  6 18  1  0
  7 19  1  0
  8 20  1  0
  8 21  1  0
  9 22  1  0
 10 23  1  0
 10 24  1  0
 11 25  1  0
 11 26  1  0
 12 27  1  0
M  END
$$$$

     RDKit          3D

 27 28  0  0  0  0  0  0  0  0999 V2000
    4.1964    0.4924    1.9507 O   0  0  0  0  0  0  0  0  0  0  0  0
    3.3534    0.2889    1.0431 C   0  0  0  0  0  0  0  0  0  0  0  0
    1.8717    0.2988    1.1735 C   0  0  0  0  0  0  0  0  0  0  0  0
    1.4459   -0.5321   -0.0196 C   0  0  1  0  0  0  0  0  0  0  0  0
    0.0304   -0.1683   -0.4574 C   0  0  0  0  0  0  0  0  0  0  0  0
   -0.8341   -0.4297    0.6506 N   0  0  0  0  0  0  0  0  0  0  0  0
   -2.2084   -0.1571    0.4340 C   0  0  0  0  0  0  0  0  0  0  0  0
   -2.9156   -0.9473   -0.6249 C   0  0  0  0  0  0  0  0  0  0  0  0
   -3.7751    0.2354   -0.8061 N   0  0  0  0  0  0  0  0  0  0  0  0
   -2.5863    1.0131   -0.4197 C   0  0  0  0  0  0  0  0  0  0  0  0
    2.4190   -0.0769   -1.0804 C   0  0  0  0  0  0  0  0  0  0  0  0
    3.6595    0.0048   -0.3136 N   0  0  0  0  0  0  0  0  0  0  0  0
    1.5409   -0.1326    2.1395 H   0  0  0  0  0  0  0  0  0  0  0  0
    1.5477    1.3399    1.0328 H   0  0  0  0  0  0  0  0  0  0  0  0
    1.5431   -1.6097    0.2083 H   0  0  0  0  0  0  0  0  0  0  0  0
    0.0465    0.8746   -0.7634 H   0  0  0  0  0  0  0  0  0  0  0  0
   -0.2151   -0.8733   -1.2806 H   0  0  0  0  0  0  0  0  0  0  0  0
   -0.5096    0.1440    1.4628 H   0  0  0  0  0  0  0  0  0  0  0  0
   -2.7945   -0.1898    1.3762 H   0  0  0  0  0  0  0  0  0  0  0  0
   -2.3557   -1.0929   -1.5749 H   0  0  0  0  0  0  0  0  0  0  0  0
   -3.4953   -1.8140   -0.3092 H   0  0  0  0  0  0  0  0  0  0  0  0
   -4.4264    0.2587    0.0399 H   0  0  0  0  0  0  0  0  0  0  0  0
   -1.9828    1.1823   -1.3130 H   0  0  0  0  0  0  0  0  0  0  0  0
   -2.8191    1.9012    0.2024 H   0  0  0  0  0  0  0  0  0  0  0  0
    2.1594    0.9250   -1.4171 H   0  0  0  0  0  0  0  0  0  0  0  0
    2.5054   -0.8053   -1.9106 H   0  0  0  0  0  0  0  0  0  0  0  0
    4.5989   -0.1299   -0.7332 H   0  0  0  0  0  0  0  0  0  0  0  0
  1  2  2  0
  2  3  1  0
  3  4  1  0
  4  5  1  0
  5  6  1  0
  6  7  1  0
  7  8  1  0
  8  9  1  0
  9 10  1  0
  4 11  1  0
 11 12  1  0
 12  2  1  0
 10  7  1  0
  3 13  1  0
  3 14  1  0
  4 15  1  1
  5 16  1  0
  5 17  1  0
  6 18  1  0
  7 19  1  0
  8 20  1  0
  8 21  1  0
  9 22  1  0
 10 23  1  0
 10 24  1  0
 11 25  1  0
 11 26  1  0
 12 27  1  0
M  END
$$$$
