
     RDKit          3D

 21 20  0  0  0  0  0  0  0  0999 V2000
    1.3038   -0.9768    1.0517 N   0  0  0  0  0  0  0  0  0  0  0  0
    1.2747    0.1803    0.2160 C   0  0  1  0  0  0  0  0  0  0  0  0
    2.5998    0.2887   -0.5078 C   0  0  0  0  0  0  0  0  0  0  0  0
    3.6003    0.4010    0.4592 O   0  0  0  0  0  0  0  0  0  0  0  0
    0.1161    0.1639   -0.7643 C   0  0  0  0  0  0  0  0  0  0  0  0
   -1.1188    0.1119   -0.0145 N   0  0  0  0  0  0  0  0  0  0  0  0
   -2.3979    0.0848   -0.6311 C   0  0  0  0  0  0  0  0  0  0  0  0
   -2.4648    0.1073   -1.9010 O   0  0  0  0  0  0  0  0  0  0  0  0
   -3.6272    0.0314    0.1965 C   0  0  0  0  0  0  0  0  0  0  0  0
   -3.6813    1.1577    1.0272 F   0  0  0  0  0  0  0  0  0  0  0  0
   -4.7180    0.0903   -0.6337 F   0  0  0  0  0  0  0  0  0  0  0  0
    2.0552   -1.6573    0.8215 H   0  0  0  0  0  0  0  0  0  0  0  0
    1.2330   -0.7759    2.0698 H   0  0  0  0  0  0  0  0  0  0  0  0
    1.2012    1.0726    0.8709 H   0  0  0  0  0  0  0  0  0  0  0  0
    2.7733   -0.5799   -1.1791 H   0  0  0  0  0  0  0  0  0  0  0  0
    2.6109    1.2409   -1.0851 H   0  0  0  0  0  0  0  0  0  0  0  0
    3.7020   -0.4346    0.9428 H   0  0  0  0  0  0  0  0  0  0  0  0
    0.1565   -0.7664   -1.3706 H   0  0  0  0  0  0  0  0  0  0  0  0
    0.1690    1.0403   -1.4313 H   0  0  0  0  0  0  0  0  0  0  0  0
   -1.1072    0.0921    1.0277 H   0  0  0  0  0  0  0  0  0  0  0  0
   -3.6807   -0.8723    0.8350 H   0  0  0  0  0  0  0  0  0  0  0  0
  1  2  1  0
  2  3  1  0
  3  4  1  0
  2  5  1  0
  5  6  1  0
  6  7  1  0
  7  8  2  0
  7  9  1  0
  9 10  1  0
  9 11  1  0
  1 12  1  0
  1 13  1  0
  2 14  1  1
  3 15  1  0
  3 16  1  0
  4 17  1  0
  5 18  1  0
  5 19  1  0
  6 20  1  0
  9 21  1  0
M  END
$$$$

     RDKit          3D

 21 20  0  0  0  0  0  0  0  0999 V2000
   -2.4760   -1.3718    0.0771 N   0  0  0  0  0  0  0  0  0  0  0  0
   -1.3530   -0.5744   -0.3537 C   0  0  1  0  0  0  0  0  0  0  0  0
   -1.7294    0.8819   -0.0924 C   0  0  0  0  0  0  0  0  0  0  0  0
   -2.8862    1.1436   -0.8475 O   0  0  0  0  0  0  0  0  0  0  0  0
   -0.1199   -0.8737    0.4602 C   0  0  0  0  0  0  0  0  0  0  0  0
    0.9825   -0.0597    0.0029 N   0  0  0  0  0  0  0  0  0  0  0  0
    2.2732   -0.1280    0.5867 C   0  0  0  0  0  0  0  0  0  0  0  0
    2.5079   -0.9133    1.5397 O   0  0  0  0  0  0  0  0  0  0  0  0
    3.3456    0.7287    0.0707 C   0  0  0  0  0  0  0  0  0  0  0  0
    3.5201    0.3985   -1.2789 F   0  0  0  0  0  0  0  0  0  0  0  0
    3.0483    2.0747    0.1225 F   0  0  0  0  0  0  0  0  0  0  0  0
   -2.8711   -1.9739   -0.6716 H   0  0  0  0  0  0  0  0  0  0  0  0
   -2.3340   -1.8499    0.9816 H   0  0  0  0  0  0  0  0  0  0  0  0
   -1.1320   -0.7137   -1.4254 H   0  0  0  0  0  0  0  0  0  0  0  0
   -1.9803    1.0169    0.9799 H   0  0  0  0  0  0  0  0  0  0  0  0
   -0.9207    1.5589   -0.3946 H   0  0  0  0  0  0  0  0  0  0  0  0
   -2.8170    2.1007   -1.1274 H   0  0  0  0  0  0  0  0  0  0  0  0
   -0.2963   -0.6686    1.5340 H   0  0  0  0  0  0  0  0  0  0  0  0
    0.1127   -1.9530    0.3686 H   0  0  0  0  0  0  0  0  0  0  0  0
    0.8398    0.6046   -0.7813 H   0  0  0  0  0  0  0  0  0  0  0  0
    4.2860    0.5714    0.6369 H   0  0  0  0  0  0  0  0  0  0  0  0
  1  2  1  0
  2  3  1  0
  3  4  1  0
  2  5  1  0
  5  6  1  0
  6  7  1  0
  7  8  2  0
  7  9  1  0
  9 10  1  0
  9 11  1  0
  1 12  1  0
  1 13  1  0
  2 14  1  6
  3 15  1  0
  3 16  1  0
  4 17  1  0
  5 18  1  0
  5 19  1  0
  6 20  1  0
  9 21  1  0
M  END
$$$$

     RDKit          3D

 21 20  0  0  0  0  0  0  0  0999 V2000
   -1.6017   -1.7520   -0.0141 N   0  0  0  0  0  0  0  0  0  0  0  0
   -1.5594   -0.3977   -0.5247 C   0  0  1  0  0  0  0  0  0  0  0  0
   -2.1280    0.5486    0.4750 C   0  0  0  0  0  0  0  0  0  0  0  0
   -2.0856    1.8558   -0.0213 O   0  0  0  0  0  0  0  0  0  0  0  0
   -0.1888   -0.0364   -1.0107 C   0  0  0  0  0  0  0  0  0  0  0  0
    0.8262   -0.1066   -0.0150 N   0  0  0  0  0  0  0  0  0  0  0  0
    2.1610    0.2096   -0.3446 C   0  0  0  0  0  0  0  0  0  0  0  0
    2.4036    0.5527   -1.5507 O   0  0  0  0  0  0  0  0  0  0  0  0
    3.2805    0.1642    0.6251 C   0  0  0  0  0  0  0  0  0  0  0  0
    3.4363   -1.1172    1.1540 F   0  0  0  0  0  0  0  0  0  0  0  0
    3.1086    1.1056    1.6017 F   0  0  0  0  0  0  0  0  0  0  0  0
   -2.5983   -2.0820   -0.1320 H   0  0  0  0  0  0  0  0  0  0  0  0
   -1.3563   -1.8041    1.0011 H   0  0  0  0  0  0  0  0  0  0  0  0
   -2.2353   -0.3746   -1.4248 H   0  0  0  0  0  0  0  0  0  0  0  0
   -3.2207    0.3075    0.5770 H   0  0  0  0  0  0  0  0  0  0  0  0
   -1.6734    0.4616    1.4808 H   0  0  0  0  0  0  0  0  0  0  0  0
   -1.2647    2.3180    0.2297 H   0  0  0  0  0  0  0  0  0  0  0  0
   -0.2087    0.9402   -1.5192 H   0  0  0  0  0  0  0  0  0  0  0  0
    0.0743   -0.7905   -1.8058 H   0  0  0  0  0  0  0  0  0  0  0  0
    0.5972   -0.3875    0.9513 H   0  0  0  0  0  0  0  0  0  0  0  0
    4.2333    0.3849    0.1033 H   0  0  0  0  0  0  0  0  0  0  0  0
  1  2  1  0
  2  3  1  0
  3  4  1  0
  2  5  1  0
  5  6  1  0
  6  7  1  0
  7  8  2  0
  7  9  1  0
  9 10  1  0
  9 11  1  0
  1 12  1  0
  1 13  1  0
  2 14  1  6
  3 15  1  0
  3 16  1  0
  4 17  1  0
  5 18  1  0
  5 19  1  0
  6 20  1  0
  9 21  1  0
M  END
$$$$

     RDKit          3D

 21 20  0  0  0  0  0  0  0  0999 V2000
   -1.1886   -1.7143   -0.6566 N   0  0  0  0  0  0  0  0  0  0  0  0
   -1.3604   -0.2779   -0.5759 C   0  0  1  0  0  0  0  0  0  0  0  0
   -2.7242    0.0073   -0.0148 C   0  0  0  0  0  0  0  0  0  0  0  0
   -2.9341    1.3848    0.0811 O   0  0  0  0  0  0  0  0  0  0  0  0
   -0.2869    0.3169    0.3001 C   0  0  0  0  0  0  0  0  0  0  0  0
    1.0193    0.0258   -0.2561 N   0  0  0  0  0  0  0  0  0  0  0  0
    2.1929    0.4821    0.3917 C   0  0  0  0  0  0  0  0  0  0  0  0
    2.0529    1.1420    1.4563 O   0  0  0  0  0  0  0  0  0  0  0  0
    3.5452    0.2106   -0.1365 C   0  0  0  0  0  0  0  0  0  0  0  0
    4.4916    0.7679    0.6884 F   0  0  0  0  0  0  0  0  0  0  0  0
    3.6648    0.8169   -1.3772 F   0  0  0  0  0  0  0  0  0  0  0  0
   -1.7982   -2.1521    0.0702 H   0  0  0  0  0  0  0  0  0  0  0  0
   -0.1875   -1.9325   -0.3944 H   0  0  0  0  0  0  0  0  0  0  0  0
   -1.3067    0.1681   -1.5787 H   0  0  0  0  0  0  0  0  0  0  0  0
   -2.8960   -0.4378    0.9790 H   0  0  0  0  0  0  0  0  0  0  0  0
   -3.4799   -0.4279   -0.7043 H   0  0  0  0  0  0  0  0  0  0  0  0
   -2.9055    1.7324   -0.8507 H   0  0  0  0  0  0  0  0  0  0  0  0
   -0.3570   -0.1263    1.3171 H   0  0  0  0  0  0  0  0  0  0  0  0
   -0.4125    1.4266    0.3236 H   0  0  0  0  0  0  0  0  0  0  0  0
    1.1180   -0.5195   -1.1346 H   0  0  0  0  0  0  0  0  0  0  0  0
    3.7530   -0.8931   -0.2027 H   0  0  0  0  0  0  0  0  0  0  0  0
  1  2  1  0
  2  3  1  0
  3  4  1  0
  2  5  1  0
  5  6  1  0
  6  7  1  0
  7  8  2  0
  7  9  1  0
  9 10  1  0
  9 11  1  0
  1 12  1  0
  1 13  1  0
  2 14  1  6
  3 15  1  0
  3 16  1  0
  4 17  1  0
  5 18  1  0
  5 19  1  0
  6 20  1  0
  9 21  1  0
M  END
$$$$

     RDKit          3D

 21 20  0  0  0  0  0  0  0  0999 V2000
   -2.2790   -1.0671   -1.1511 N   0  0  0  0  0  0  0  0  0  0  0  0
   -1.2375   -0.1166   -0.8417 C   0  0  1  0  0  0  0  0  0  0  0  0
   -1.7763    0.8418    0.1985 C   0  0  0  0  0  0  0  0  0  0  0  0
   -2.8924    1.4878   -0.3326 O   0  0  0  0  0  0  0  0  0  0  0  0
   -0.0758   -0.8977   -0.2553 C   0  0  0  0  0  0  0  0  0  0  0  0
    1.0082    0.0014    0.0784 N   0  0  0  0  0  0  0  0  0  0  0  0
    2.1978   -0.5191    0.6423 C   0  0  0  0  0  0  0  0  0  0  0  0
    2.2711   -1.7629    0.8359 O   0  0  0  0  0  0  0  0  0  0  0  0
    3.3189    0.3789    0.9917 C   0  0  0  0  0  0  0  0  0  0  0  0
    3.7256    1.0171   -0.1786 F   0  0  0  0  0  0  0  0  0  0  0  0
    4.3449   -0.3321    1.5731 F   0  0  0  0  0  0  0  0  0  0  0  0
   -3.1903   -0.6455   -1.3397 H   0  0  0  0  0  0  0  0  0  0  0  0
   -1.9886   -1.8431   -1.7520 H   0  0  0  0  0  0  0  0  0  0  0  0
   -0.9117    0.4635   -1.7076 H   0  0  0  0  0  0  0  0  0  0  0  0
   -2.0422    0.2351    1.1059 H   0  0  0  0  0  0  0  0  0  0  0  0
   -0.9727    1.5731    0.4371 H   0  0  0  0  0  0  0  0  0  0  0  0
   -3.2295    2.1175    0.3435 H   0  0  0  0  0  0  0  0  0  0  0  0
    0.2433   -1.7002   -0.9501 H   0  0  0  0  0  0  0  0  0  0  0  0
   -0.4241   -1.4251    0.6694 H   0  0  0  0  0  0  0  0  0  0  0  0
    0.9551    1.0439   -0.0804 H   0  0  0  0  0  0  0  0  0  0  0  0
    2.9553    1.1495    1.7131 H   0  0  0  0  0  0  0  0  0  0  0  0
  1  2  1  0
  2  3  1  0
  3  4  1  0
  2  5  1  0
  5  6  1  0
  6  7  1  0
  7  8  2  0
  7  9  1  0
  9 10  1  0
  9 11  1  0
  1 12  1  0
  1 13  1  0
  2 14  1  6
  3 15  1  0
  3 16  1  0
  4 17  1  0
  5 18  1  0
  5 19  1  0
  6 20  1  0
  9 21  1  0
M  END
$$$$

     RDKit          3D

 21 20  0  0  0  0  0  0  0  0999 V2000
   -0.8811   -0.6452   -1.5673 N   0  0  0  0  0  0  0  0  0  0  0  0
   -1.0086    0.2465   -0.4285 C   0  0  1  0  0  0  0  0  0  0  0  0
   -2.4893    0.5565   -0.2600 C   0  0  0  0  0  0  0  0  0  0  0  0
   -2.7200    1.4037    0.8045 O   0  0  0  0  0  0  0  0  0  0  0  0
   -0.4684   -0.4387    0.8006 C   0  0  0  0  0  0  0  0  0  0  0  0
    0.9044   -0.7658    0.5929 N   0  0  0  0  0  0  0  0  0  0  0  0
    1.8548    0.2491    0.3578 C   0  0  0  0  0  0  0  0  0  0  0  0
    1.5589    1.4715    0.3221 O   0  0  0  0  0  0  0  0  0  0  0  0
    3.3064   -0.0876    0.1321 C   0  0  0  0  0  0  0  0  0  0  0  0
    3.7393   -0.7531    1.2669 F   0  0  0  0  0  0  0  0  0  0  0  0
    3.4606   -0.8786   -0.9739 F   0  0  0  0  0  0  0  0  0  0  0  0
   -1.7365   -0.6644   -2.1597 H   0  0  0  0  0  0  0  0  0  0  0  0
   -0.6641   -1.6154   -1.2423 H   0  0  0  0  0  0  0  0  0  0  0  0
   -0.4901    1.1799   -0.6145 H   0  0  0  0  0  0  0  0  0  0  0  0
   -2.7969    1.0738   -1.2082 H   0  0  0  0  0  0  0  0  0  0  0  0
   -3.0693   -0.3672   -0.2024 H   0  0  0  0  0  0  0  0  0  0  0  0
   -1.9666    2.0262    0.9444 H   0  0  0  0  0  0  0  0  0  0  0  0
   -1.0500   -1.3556    1.0576 H   0  0  0  0  0  0  0  0  0  0  0  0
   -0.5620    0.2585    1.6675 H   0  0  0  0  0  0  0  0  0  0  0  0
    1.2172   -1.7530    0.6127 H   0  0  0  0  0  0  0  0  0  0  0  0
    3.8613    0.8589    0.0978 H   0  0  0  0  0  0  0  0  0  0  0  0
  1  2  1  0
  2  3  1  0
  3  4  1  0
  2  5  1  0
  5  6  1  0
  6  7  1  0
  7  8  2  0
  7  9  1  0
  9 10  1  0
  9 11  1  0
  1 12  1  0
  1 13  1  0
  2 14  1  6
  3 15  1  0
  3 16  1  0
  4 17  1  0
  5 18  1  0
  5 19  1  0
  6 20  1  0
  9 21  1  0
M  END
$$$$

     RDKit          3D

 21 20  0  0  0  0  0  0  0  0999 V2000
   -2.4199   -0.9473   -0.6138 N   0  0  0  0  0  0  0  0  0  0  0  0
   -1.1888   -0.2491   -0.2902 C   0  0  1  0  0  0  0  0  0  0  0  0
   -1.3869    0.6677    0.9130 C   0  0  0  0  0  0  0  0  0  0  0  0
   -2.3489    1.6242    0.7003 O   0  0  0  0  0  0  0  0  0  0  0  0
   -0.1955   -1.3066    0.1378 C   0  0  0  0  0  0  0  0  0  0  0  0
    1.0405   -0.6855    0.4728 N   0  0  0  0  0  0  0  0  0  0  0  0
    1.7594    0.0601   -0.4808 C   0  0  0  0  0  0  0  0  0  0  0  0
    1.3609    0.2131   -1.6503 O   0  0  0  0  0  0  0  0  0  0  0  0
    3.0590    0.7002   -0.0827 C   0  0  0  0  0  0  0  0  0  0  0  0
    3.9355   -0.2626    0.3198 F   0  0  0  0  0  0  0  0  0  0  0  0
    3.4995    1.4923   -1.0985 F   0  0  0  0  0  0  0  0  0  0  0  0
   -3.2218   -0.3181   -0.7571 H   0  0  0  0  0  0  0  0  0  0  0  0
   -2.6111   -1.7451    0.0310 H   0  0  0  0  0  0  0  0  0  0  0  0
   -0.8996    0.3074   -1.1794 H   0  0  0  0  0  0  0  0  0  0  0  0
   -1.5895    0.0067    1.7806 H   0  0  0  0  0  0  0  0  0  0  0  0
   -0.4123    1.1750    1.0776 H   0  0  0  0  0  0  0  0  0  0  0  0
   -1.9570    2.5425    0.6879 H   0  0  0  0  0  0  0  0  0  0  0  0
   -0.0733   -2.0787   -0.6538 H   0  0  0  0  0  0  0  0  0  0  0  0
   -0.6347   -1.7723    1.0616 H   0  0  0  0  0  0  0  0  0  0  0  0
    1.4426   -0.7738    1.4490 H   0  0  0  0  0  0  0  0  0  0  0  0
    2.8420    1.3498    0.7933 H   0  0  0  0  0  0  0  0  0  0  0  0
  1  2  1  0
  2  3  1  0
  3  4  1  0
  2  5  1  0
  5  6  1  0
  6  7  1  0
  7  8  2  0
  7  9  1  0
  9 10  1  0
  9 11  1  0
  1 12  1  0
  1 13  1  0
  2 14  1  6
  3 15  1  0
  3 16  1  0
  4 17  1  0
  5 18  1  0
  5 19  1  0
  6 20  1  0
  9 21  1  0
M  END
$$$$

     RDKit          3D

 21 20  0  0  0  0  0  0  0  0999 V2000
   -2.2966    0.2641   -1.4913 N   0  0  0  0  0  0  0  0  0  0  0  0
   -1.0841    0.3889   -0.6983 C   0  0  1  0  0  0  0  0  0  0  0  0
   -1.5298    0.7378    0.7265 C   0  0  0  0  0  0  0  0  0  0  0  0
   -2.2390    1.9194    0.7654 O   0  0  0  0  0  0  0  0  0  0  0  0
   -0.4218   -0.9546   -0.6752 C   0  0  0  0  0  0  0  0  0  0  0  0
    0.7987   -1.0100    0.0705 N   0  0  0  0  0  0  0  0  0  0  0  0
    1.9344   -0.2052   -0.2542 C   0  0  0  0  0  0  0  0  0  0  0  0
    1.7802    0.5625   -1.2533 O   0  0  0  0  0  0  0  0  0  0  0  0
    3.2027   -0.2286    0.4802 C   0  0  0  0  0  0  0  0  0  0  0  0
    3.0687    0.1165    1.8108 F   0  0  0  0  0  0  0  0  0  0  0  0
    4.1066    0.6064   -0.1463 F   0  0  0  0  0  0  0  0  0  0  0  0
   -2.8423   -0.5278   -1.0433 H   0  0  0  0  0  0  0  0  0  0  0  0
   -2.0422   -0.0800   -2.4534 H   0  0  0  0  0  0  0  0  0  0  0  0
   -0.4937    1.1916   -1.1257 H   0  0  0  0  0  0  0  0  0  0  0  0
   -0.6209    0.8665    1.3476 H   0  0  0  0  0  0  0  0  0  0  0  0
   -2.1564   -0.0548    1.1557 H   0  0  0  0  0  0  0  0  0  0  0  0
   -2.3274    2.2532   -0.1768 H   0  0  0  0  0  0  0  0  0  0  0  0
   -0.3066   -1.2868   -1.7401 H   0  0  0  0  0  0  0  0  0  0  0  0
   -1.1389   -1.6698   -0.2195 H   0  0  0  0  0  0  0  0  0  0  0  0
    0.9252   -1.6448    0.8961 H   0  0  0  0  0  0  0  0  0  0  0  0
    3.6832   -1.2446    0.4810 H   0  0  0  0  0  0  0  0  0  0  0  0
  1  2  1  0
  2  3  1  0
  3  4  1  0
  2  5  1  0
  5  6  1  0
  6  7  1  0
  7  8  2  0
  7  9  1  0
  9 10  1  0
  9 11  1  0
  1 12  1  0
  1 13  1  0
  2 14  1  6
  3 15  1  0
  3 16  1  0
  4 17  1  0
  5 18  1  0
  5 19  1  0
  6 20  1  0
  9 21  1  0
M  END
$$$$
