
     RDKit          3D

 25 26  0  0  0  0  0  0  0  0999 V2000
    3.1048   -0.2120   -0.2401 C   0  0  0  0  0  0  0  0  0  0  0  0
    1.9350   -0.9402    0.0361 O   0  0  0  0  0  0  0  0  0  0  0  0
    0.9279   -0.0483    0.3459 C   0  0  2  0  0  0  0  0  0  0  0  0
    0.4108   -0.2524    1.6303 O   0  0  0  0  0  0  0  0  0  0  0  0
   -0.5894    0.6499    1.8813 C   0  0  0  0  0  0  0  0  0  0  0  0
   -1.7582    0.4998    0.9005 C   0  0  2  0  0  0  0  0  0  0  0  0
   -2.0805   -0.8222    0.6792 O   0  0  0  0  0  0  0  0  0  0  0  0
   -1.0591   -1.4012   -0.0223 C   0  0  1  0  0  0  0  0  0  0  0  0
   -1.4570   -2.2775   -1.0101 O   0  0  0  0  0  0  0  0  0  0  0  0
   -0.2160   -0.2929   -0.6188 C   0  0  2  0  0  0  0  0  0  0  0  0
    0.1711   -0.5107   -1.9030 O   0  0  0  0  0  0  0  0  0  0  0  0
   -1.1630    0.8964   -0.4597 C   0  0  1  0  0  0  0  0  0  0  0  0
   -2.1227    0.9262   -1.4442 O   0  0  0  0  0  0  0  0  0  0  0  0
    2.9634    0.4836   -1.0972 H   0  0  0  0  0  0  0  0  0  0  0  0
    3.9571   -0.8719   -0.4605 H   0  0  0  0  0  0  0  0  0  0  0  0
    3.3443    0.3501    0.7020 H   0  0  0  0  0  0  0  0  0  0  0  0
    1.2611    1.0165    0.3079 H   0  0  0  0  0  0  0  0  0  0  0  0
   -0.9250    0.6677    2.9154 H   0  0  0  0  0  0  0  0  0  0  0  0
   -0.1702    1.6768    1.6686 H   0  0  0  0  0  0  0  0  0  0  0  0
   -2.5925    1.1194    1.1916 H   0  0  0  0  0  0  0  0  0  0  0  0
   -0.4552   -2.0052    0.7157 H   0  0  0  0  0  0  0  0  0  0  0  0
   -0.6315   -2.6026   -1.4596 H   0  0  0  0  0  0  0  0  0  0  0  0
    0.2581    0.2863   -2.4634 H   0  0  0  0  0  0  0  0  0  0  0  0
   -0.5985    1.8348   -0.3399 H   0  0  0  0  0  0  0  0  0  0  0  0
   -2.5147    1.8294   -1.4557 H   0  0  0  0  0  0  0  0  0  0  0  0
  1  2  1  0
  2  3  1  0
  3  4  1  0
  4  5  1  0
  5  6  1  0
  6  7  1  0
  7  8  1  0
  8  9  1  0
  8 10  1  0
 10 11  1  6
 10 12  1  0
 12 13  1  0
 10  3  1  0
 12  6  1  0
  1 14  1  0
  1 15  1  0
  1 16  1  0
  3 17  1  1
  5 18  1  0
  5 19  1  0
  6 20  1  1
  8 21  1  1
  9 22  1  0
 11 23  1  0
 12 24  1  1
 13 25  1  0
M  END
$$$$

     RDKit          3D

 25 26  0  0  0  0  0  0  0  0999 V2000
    3.0340   -0.7651    0.2438 C   0  0  0  0  0  0  0  0  0  0  0  0
    1.9970   -0.2601   -0.5069 O   0  0  0  0  0  0  0  0  0  0  0  0
    0.7428   -0.6341   -0.0241 C   0  0  2  0  0  0  0  0  0  0  0  0
    0.0884   -1.2803   -1.0532 O   0  0  0  0  0  0  0  0  0  0  0  0
   -1.2455   -1.4384   -0.9216 C   0  0  0  0  0  0  0  0  0  0  0  0
   -1.9952   -0.2989   -0.3008 C   0  0  2  0  0  0  0  0  0  0  0  0
   -1.8731    0.8371   -1.1004 O   0  0  0  0  0  0  0  0  0  0  0  0
   -0.5283    1.1841   -1.0086 C   0  0  1  0  0  0  0  0  0  0  0  0
   -0.3570    2.5532   -1.1650 O   0  0  0  0  0  0  0  0  0  0  0  0
    0.0022    0.6536    0.2786 C   0  0  2  0  0  0  0  0  0  0  0  0
    0.7146    1.5500    1.0236 O   0  0  0  0  0  0  0  0  0  0  0  0
   -1.2942    0.2061    0.9700 C   0  0  1  0  0  0  0  0  0  0  0  0
   -2.0127    1.2806    1.4454 O   0  0  0  0  0  0  0  0  0  0  0  0
    3.9791   -0.4083   -0.2260 H   0  0  0  0  0  0  0  0  0  0  0  0
    3.0906   -1.8736    0.2225 H   0  0  0  0  0  0  0  0  0  0  0  0
    3.0163   -0.3551    1.2598 H   0  0  0  0  0  0  0  0  0  0  0  0
    0.8116   -1.2737    0.8852 H   0  0  0  0  0  0  0  0  0  0  0  0
   -1.6853   -1.5729   -1.9500 H   0  0  0  0  0  0  0  0  0  0  0  0
   -1.5155   -2.3961   -0.3902 H   0  0  0  0  0  0  0  0  0  0  0  0
   -3.0239   -0.5923   -0.1200 H   0  0  0  0  0  0  0  0  0  0  0  0
   -0.0332    0.7006   -1.9009 H   0  0  0  0  0  0  0  0  0  0  0  0
    0.6291    2.7101   -1.2834 H   0  0  0  0  0  0  0  0  0  0  0  0
    1.1959    1.1193    1.7705 H   0  0  0  0  0  0  0  0  0  0  0  0
   -1.1249   -0.5905    1.6927 H   0  0  0  0  0  0  0  0  0  0  0  0
   -2.6130    0.9446    2.1588 H   0  0  0  0  0  0  0  0  0  0  0  0
  1  2  1  0
  2  3  1  0
  3  4  1  0
  4  5  1  0
  5  6  1  0
  6  7  1  0
  7  8  1  0
  8  9  1  0
  8 10  1  0
 10 11  1  1
 10 12  1  0
 12 13  1  0
 10  3  1  0
 12  6  1  0
  1 14  1  0
  1 15  1  0
  1 16  1  0
  3 17  1  1
  5 18  1  0
  5 19  1  0
  6 20  1  1
  8 21  1  6
  9 22  1  0
 11 23  1  0
 12 24  1  1
 13 25  1  0
M  END
$$$$

     RDKit          3D

 25 26  0  0  0  0  0  0  0  0999 V2000
    3.0892   -0.4075   -0.1865 C   0  0  0  0  0  0  0  0  0  0  0  0
    1.8369   -1.0194   -0.2468 O   0  0  0  0  0  0  0  0  0  0  0  0
    0.9139   -0.1843    0.4152 C   0  0  2  0  0  0  0  0  0  0  0  0
    0.2646   -0.9434    1.3460 O   0  0  0  0  0  0  0  0  0  0  0  0
   -0.9067   -0.4818    1.8345 C   0  0  0  0  0  0  0  0  0  0  0  0
   -1.8143    0.2152    0.8835 C   0  0  2  0  0  0  0  0  0  0  0  0
   -2.2509   -0.6108   -0.1530 O   0  0  0  0  0  0  0  0  0  0  0  0
   -1.0558   -0.9506   -0.7861 C   0  0  1  0  0  0  0  0  0  0  0  0
   -1.2594   -1.3430   -2.1045 O   0  0  0  0  0  0  0  0  0  0  0  0
   -0.1153    0.2008   -0.6496 C   0  0  2  0  0  0  0  0  0  0  0  0
    0.4302    0.6661   -1.7944 O   0  0  0  0  0  0  0  0  0  0  0  0
   -0.9984    1.2310    0.0706 C   0  0  1  0  0  0  0  0  0  0  0  0
   -1.7809    1.9338   -0.8037 O   0  0  0  0  0  0  0  0  0  0  0  0
    3.3453   -0.2933    0.9010 H   0  0  0  0  0  0  0  0  0  0  0  0
    3.8453   -1.0659   -0.6361 H   0  0  0  0  0  0  0  0  0  0  0  0
    3.1227    0.5744   -0.6620 H   0  0  0  0  0  0  0  0  0  0  0  0
    1.4075    0.7214    0.8040 H   0  0  0  0  0  0  0  0  0  0  0  0
   -1.4818   -1.3640    2.2464 H   0  0  0  0  0  0  0  0  0  0  0  0
   -0.7365    0.1777    2.7059 H   0  0  0  0  0  0  0  0  0  0  0  0
   -2.6239    0.7032    1.4299 H   0  0  0  0  0  0  0  0  0  0  0  0
   -0.6901   -1.8713   -0.2472 H   0  0  0  0  0  0  0  0  0  0  0  0
   -0.7580   -2.1674   -2.3272 H   0  0  0  0  0  0  0  0  0  0  0  0
    0.0708    1.5825   -1.9827 H   0  0  0  0  0  0  0  0  0  0  0  0
   -0.4274    1.8270    0.7862 H   0  0  0  0  0  0  0  0  0  0  0  0
   -1.4269    2.8693   -0.8435 H   0  0  0  0  0  0  0  0  0  0  0  0
  1  2  1  0
  2  3  1  0
  3  4  1  0
  4  5  1  0
  5  6  1  0
  6  7  1  0
  7  8  1  0
  8  9  1  0
  8 10  1  0
 10 11  1  6
 10 12  1  0
 12 13  1  0
 10  3  1  0
 12  6  1  0
  1 14  1  0
  1 15  1  0
  1 16  1  0
  3 17  1  1
  5 18  1  0
  5 19  1  0
  6 20  1  1
  8 21  1  1
  9 22  1  0
 11 23  1  0
 12 24  1  1
 13 25  1  0
M  END
$$$$

     RDKit          3D

 25 26  0  0  0  0  0  0  0  0999 V2000
    3.0787    0.9589    0.3130 C   0  0  0  0  0  0  0  0  0  0  0  0
    1.7475    1.3318    0.1434 O   0  0  0  0  0  0  0  0  0  0  0  0
    0.9917    0.2748   -0.3507 C   0  0  2  0  0  0  0  0  0  0  0  0
    0.4307    0.6709   -1.5391 O   0  0  0  0  0  0  0  0  0  0  0  0
   -0.5401   -0.1602   -2.0346 C   0  0  0  0  0  0  0  0  0  0  0  0
   -1.5992   -0.5079   -1.0018 C   0  0  2  0  0  0  0  0  0  0  0  0
   -2.0398    0.6405   -0.3943 O   0  0  0  0  0  0  0  0  0  0  0  0
   -1.1358    1.0334    0.5561 C   0  0  1  0  0  0  0  0  0  0  0  0
   -1.7610    1.1675    1.8160 O   0  0  0  0  0  0  0  0  0  0  0  0
   -0.0728   -0.0343    0.6668 C   0  0  2  0  0  0  0  0  0  0  0  0
    0.3911   -0.2351    1.9336 O   0  0  0  0  0  0  0  0  0  0  0  0
   -0.8510   -1.2410    0.1217 C   0  0  1  0  0  0  0  0  0  0  0  0
   -1.7196   -1.7407    1.0629 O   0  0  0  0  0  0  0  0  0  0  0  0
    3.1403    0.1114    1.0323 H   0  0  0  0  0  0  0  0  0  0  0  0
    3.6326    1.8216    0.7338 H   0  0  0  0  0  0  0  0  0  0  0  0
    3.4497    0.6649   -0.6966 H   0  0  0  0  0  0  0  0  0  0  0  0
    1.6152   -0.6371   -0.5024 H   0  0  0  0  0  0  0  0  0  0  0  0
   -1.0777    0.3930   -2.8458 H   0  0  0  0  0  0  0  0  0  0  0  0
   -0.1393   -1.1140   -2.4224 H   0  0  0  0  0  0  0  0  0  0  0  0
   -2.3790   -1.1125   -1.4488 H   0  0  0  0  0  0  0  0  0  0  0  0
   -0.6566    1.9975    0.3552 H   0  0  0  0  0  0  0  0  0  0  0  0
   -2.6568    1.5529    1.6480 H   0  0  0  0  0  0  0  0  0  0  0  0
    0.2028   -1.1645    2.2214 H   0  0  0  0  0  0  0  0  0  0  0  0
   -0.1566   -1.9678   -0.3062 H   0  0  0  0  0  0  0  0  0  0  0  0
   -1.8952   -2.7037    0.9384 H   0  0  0  0  0  0  0  0  0  0  0  0
  1  2  1  0
  2  3  1  0
  3  4  1  0
  4  5  1  0
  5  6  1  0
  6  7  1  0
  7  8  1  0
  8  9  1  0
  8 10  1  0
 10 11  1  1
 10 12  1  0
 12 13  1  0
 10  3  1  0
 12  6  1  0
  1 14  1  0
  1 15  1  0
  1 16  1  0
  3 17  1  6
  5 18  1  0
  5 19  1  0
  6 20  1  6
  8 21  1  6
  9 22  1  0
 11 23  1  0
 12 24  1  6
 13 25  1  0
M  END
$$$$

     RDKit          3D

 25 26  0  0  0  0  0  0  0  0999 V2000
    3.1544    0.2973    0.0473 C   0  0  0  0  0  0  0  0  0  0  0  0
    1.9278    0.1455   -0.6251 O   0  0  0  0  0  0  0  0  0  0  0  0
    1.0058   -0.5286    0.1506 C   0  0  2  0  0  0  0  0  0  0  0  0
    0.5888   -1.7205   -0.3878 O   0  0  0  0  0  0  0  0  0  0  0  0
   -0.5489   -1.6657   -1.1403 C   0  0  0  0  0  0  0  0  0  0  0  0
   -1.6991   -0.9575   -0.4716 C   0  0  2  0  0  0  0  0  0  0  0  0
   -1.8266    0.2880   -1.0984 O   0  0  0  0  0  0  0  0  0  0  0  0
   -0.7167    1.0367   -0.7299 C   0  0  1  0  0  0  0  0  0  0  0  0
   -1.1464    2.3550   -0.4630 O   0  0  0  0  0  0  0  0  0  0  0  0
   -0.1279    0.4075    0.4977 C   0  0  2  0  0  0  0  0  0  0  0  0
    0.2637    1.2791    1.4662 O   0  0  0  0  0  0  0  0  0  0  0  0
   -1.2954   -0.4901    0.9370 C   0  0  1  0  0  0  0  0  0  0  0  0
   -2.3457    0.2468    1.4302 O   0  0  0  0  0  0  0  0  0  0  0  0
    2.9706    0.8671    0.9650 H   0  0  0  0  0  0  0  0  0  0  0  0
    3.4772   -0.7457    0.3170 H   0  0  0  0  0  0  0  0  0  0  0  0
    3.8705    0.7761   -0.6482 H   0  0  0  0  0  0  0  0  0  0  0  0
    1.5066   -0.7753    1.1312 H   0  0  0  0  0  0  0  0  0  0  0  0
   -0.8761   -2.7057   -1.3509 H   0  0  0  0  0  0  0  0  0  0  0  0
   -0.3119   -1.2127   -2.1369 H   0  0  0  0  0  0  0  0  0  0  0  0
   -2.6367   -1.4987   -0.4793 H   0  0  0  0  0  0  0  0  0  0  0  0
    0.0189    1.0509   -1.5388 H   0  0  0  0  0  0  0  0  0  0  0  0
   -1.5701    2.6663   -1.3020 H   0  0  0  0  0  0  0  0  0  0  0  0
   -0.2134    2.1432    1.4791 H   0  0  0  0  0  0  0  0  0  0  0  0
   -0.9605   -1.3130    1.5640 H   0  0  0  0  0  0  0  0  0  0  0  0
   -2.5089    0.0541    2.3869 H   0  0  0  0  0  0  0  0  0  0  0  0
  1  2  1  0
  2  3  1  0
  3  4  1  0
  4  5  1  0
  5  6  1  0
  6  7  1  0
  7  8  1  0
  8  9  1  0
  8 10  1  0
 10 11  1  1
 10 12  1  0
 12 13  1  0
 10  3  1  0
 12  6  1  0
  1 14  1  0
  1 15  1  0
  1 16  1  0
  3 17  1  1
  5 18  1  0
  5 19  1  0
  6 20  1  1
  8 21  1  6
  9 22  1  0
 11 23  1  0
 12 24  1  1
 13 25  1  0
M  END
$$$$

     RDKit          3D

 25 26  0  0  0  0  0  0  0  0999 V2000
    2.1927    2.2504   -0.3761 C   0  0  0  0  0  0  0  0  0  0  0  0
    1.2454    1.6801    0.4738 O   0  0  0  0  0  0  0  0  0  0  0  0
    0.2944    0.9497   -0.2304 C   0  0  2  0  0  0  0  0  0  0  0  0
   -0.9447    1.3979    0.0993 O   0  0  0  0  0  0  0  0  0  0  0  0
   -2.0101    0.6298   -0.1871 C   0  0  0  0  0  0  0  0  0  0  0  0
   -1.8296   -0.8482   -0.1502 C   0  0  2  0  0  0  0  0  0  0  0  0
   -1.5571   -1.3370    1.1274 O   0  0  0  0  0  0  0  0  0  0  0  0
   -0.3609   -0.6917    1.4367 C   0  0  1  0  0  0  0  0  0  0  0  0
    0.3622   -1.3626    2.4140 O   0  0  0  0  0  0  0  0  0  0  0  0
    0.4050   -0.5050    0.1627 C   0  0  2  0  0  0  0  0  0  0  0  0
    1.6733   -0.9939    0.1688 O   0  0  0  0  0  0  0  0  0  0  0  0
   -0.5092   -1.2255   -0.8416 C   0  0  1  0  0  0  0  0  0  0  0  0
   -0.3115   -2.5789   -0.8354 O   0  0  0  0  0  0  0  0  0  0  0  0
    1.7445    2.9385   -1.1064 H   0  0  0  0  0  0  0  0  0  0  0  0
    2.9265    2.8309    0.2186 H   0  0  0  0  0  0  0  0  0  0  0  0
    2.7879    1.4452   -0.8921 H   0  0  0  0  0  0  0  0  0  0  0  0
    0.5097    0.9871   -1.3333 H   0  0  0  0  0  0  0  0  0  0  0  0
   -2.4781    0.8777   -1.1845 H   0  0  0  0  0  0  0  0  0  0  0  0
   -2.8298    0.8776    0.5516 H   0  0  0  0  0  0  0  0  0  0  0  0
   -2.6791   -1.3358   -0.6332 H   0  0  0  0  0  0  0  0  0  0  0  0
   -0.6640    0.2918    1.9001 H   0  0  0  0  0  0  0  0  0  0  0  0
    0.9099   -0.6961    2.9363 H   0  0  0  0  0  0  0  0  0  0  0  0
    1.6658   -1.9179   -0.1721 H   0  0  0  0  0  0  0  0  0  0  0  0
   -0.5057   -0.7444   -1.8175 H   0  0  0  0  0  0  0  0  0  0  0  0
   -0.0374   -2.9199   -1.7293 H   0  0  0  0  0  0  0  0  0  0  0  0
  1  2  1  0
  2  3  1  0
  3  4  1  0
  4  5  1  0
  5  6  1  0
  6  7  1  0
  7  8  1  0
  8  9  1  0
  8 10  1  0
 10 11  1  1
 10 12  1  0
 12 13  1  0
 10  3  1  0
 12  6  1  0
  1 14  1  0
  1 15  1  0
  1 16  1  0
  3 17  1  6
  5 18  1  0
  5 19  1  0
  6 20  1  6
  8 21  1  1
  9 22  1  0
 11 23  1  0
 12 24  1  6
 13 25  1  0
M  END
$$$$

     RDKit          3D

 25 26  0  0  0  0  0  0  0  0999 V2000
    3.1827    0.0756    0.5385 C   0  0  0  0  0  0  0  0  0  0  0  0
    1.9523    0.3711    1.1673 O   0  0  0  0  0  0  0  0  0  0  0  0
    0.9651    0.4395    0.2200 C   0  0  2  0  0  0  0  0  0  0  0  0
    0.3905    1.7256    0.1363 O   0  0  0  0  0  0  0  0  0  0  0  0
   -0.4653    1.7960   -0.9390 C   0  0  0  0  0  0  0  0  0  0  0  0
   -1.5990    0.7729   -0.7793 C   0  0  2  0  0  0  0  0  0  0  0  0
   -2.0134    0.8440    0.5278 O   0  0  0  0  0  0  0  0  0  0  0  0
   -1.2119    0.0457    1.3041 C   0  0  1  0  0  0  0  0  0  0  0  0
   -1.9906   -0.9161    1.9226 O   0  0  0  0  0  0  0  0  0  0  0  0
   -0.1457   -0.5535    0.4181 C   0  0  2  0  0  0  0  0  0  0  0  0
    0.2996   -1.7738    0.8129 O   0  0  0  0  0  0  0  0  0  0  0  0
   -0.9057   -0.5924   -0.9155 C   0  0  1  0  0  0  0  0  0  0  0  0
   -1.7962   -1.6252   -0.9801 O   0  0  0  0  0  0  0  0  0  0  0  0
    3.3990    0.8954   -0.1915 H   0  0  0  0  0  0  0  0  0  0  0  0
    3.0590   -0.8421   -0.0942 H   0  0  0  0  0  0  0  0  0  0  0  0
    3.9536   -0.0530    1.2997 H   0  0  0  0  0  0  0  0  0  0  0  0
    1.3814    0.2447   -0.8081 H   0  0  0  0  0  0  0  0  0  0  0  0
   -0.9118    2.8097   -0.9574 H   0  0  0  0  0  0  0  0  0  0  0  0
    0.0776    1.6383   -1.9013 H   0  0  0  0  0  0  0  0  0  0  0  0
   -2.3822    0.9153   -1.5207 H   0  0  0  0  0  0  0  0  0  0  0  0
   -0.7060    0.6227    2.1198 H   0  0  0  0  0  0  0  0  0  0  0  0
   -2.5047   -1.4757    1.3170 H   0  0  0  0  0  0  0  0  0  0  0  0
   -0.3157   -2.5102    0.6753 H   0  0  0  0  0  0  0  0  0  0  0  0
   -0.1641   -0.5475   -1.7186 H   0  0  0  0  0  0  0  0  0  0  0  0
   -1.5484   -2.3068   -1.6539 H   0  0  0  0  0  0  0  0  0  0  0  0
  1  2  1  0
  2  3  1  0
  3  4  1  0
  4  5  1  0
  5  6  1  0
  6  7  1  0
  7  8  1  0
  8  9  1  0
  8 10  1  0
 10 11  1  1
 10 12  1  0
 12 13  1  0
 10  3  1  0
 12  6  1  0
  1 14  1  0
  1 15  1  0
  1 16  1  0
  3 17  1  6
  5 18  1  0
  5 19  1  0
  6 20  1  6
  8 21  1  1
  9 22  1  0
 11 23  1  0
 12 24  1  6
 13 25  1  0
M  END
$$$$

     RDKit          3D

 25 26  0  0  0  0  0  0  0  0999 V2000
    2.9503   -0.0019   -0.1192 C   0  0  0  0  0  0  0  0  0  0  0  0
    1.6502    0.4881   -0.0865 O   0  0  0  0  0  0  0  0  0  0  0  0
    0.7686   -0.3662   -0.7872 C   0  0  2  0  0  0  0  0  0  0  0  0
    0.2434    0.4375   -1.8057 O   0  0  0  0  0  0  0  0  0  0  0  0
   -0.2596    1.5874   -1.1960 C   0  0  0  0  0  0  0  0  0  0  0  0
   -1.1267    1.2367    0.0215 C   0  0  2  0  0  0  0  0  0  0  0  0
   -0.2974    1.1112    1.1111 O   0  0  0  0  0  0  0  0  0  0  0  0
   -0.1736   -0.2131    1.4512 C   0  0  1  0  0  0  0  0  0  0  0  0
   -1.2039   -0.6154    2.3022 O   0  0  0  0  0  0  0  0  0  0  0  0
   -0.3263   -0.8904    0.0823 C   0  0  2  0  0  0  0  0  0  0  0  0
   -0.4454   -2.2335    0.1527 O   0  0  0  0  0  0  0  0  0  0  0  0
   -1.6356   -0.1798   -0.3034 C   0  0  1  0  0  0  0  0  0  0  0  0
   -2.6602   -0.4928    0.5579 O   0  0  0  0  0  0  0  0  0  0  0  0
    3.0403   -1.0121    0.3420 H   0  0  0  0  0  0  0  0  0  0  0  0
    3.3903    0.0481   -1.1344 H   0  0  0  0  0  0  0  0  0  0  0  0
    3.5572    0.6751    0.5159 H   0  0  0  0  0  0  0  0  0  0  0  0
    1.3149   -1.2359   -1.2053 H   0  0  0  0  0  0  0  0  0  0  0  0
   -0.9471    2.0682   -1.9449 H   0  0  0  0  0  0  0  0  0  0  0  0
    0.5384    2.2947   -0.9137 H   0  0  0  0  0  0  0  0  0  0  0  0
   -1.9462    1.9460    0.1400 H   0  0  0  0  0  0  0  0  0  0  0  0
    0.8013   -0.5115    1.8374 H   0  0  0  0  0  0  0  0  0  0  0  0
   -1.2853   -1.5983    2.2912 H   0  0  0  0  0  0  0  0  0  0  0  0
   -0.8736   -2.5853   -0.6415 H   0  0  0  0  0  0  0  0  0  0  0  0
   -1.8663   -0.2902   -1.3603 H   0  0  0  0  0  0  0  0  0  0  0  0
   -3.2076    0.3333    0.6925 H   0  0  0  0  0  0  0  0  0  0  0  0
  1  2  1  0
  2  3  1  0
  3  4  1  0
  4  5  1  0
  5  6  1  0
  6  7  1  0
  7  8  1  0
  8  9  1  0
  8 10  1  0
 10 11  1  1
 10 12  1  0
 12 13  1  0
 10  3  1  0
 12  6  1  0
  1 14  1  0
  1 15  1  0
  1 16  1  0
  3 17  1  6
  5 18  1  0
  5 19  1  0
  6 20  1  1
  8 21  1  1
  9 22  1  0
 11 23  1  0
 12 24  1  6
 13 25  1  0
M  END
$$$$
