
     RDKit          3D

 30 31  0  0  0  0  0  0  0  0999 V2000
   -2.3139    0.4752    1.2232 C   0  0  0  0  0  0  0  0  0  0  0  0
   -2.0188    0.2962   -0.2531 C   0  0  2  0  0  0  0  0  0  0  0  0
   -1.8013   -1.1695   -0.4944 C   0  0  0  0  0  0  0  0  0  0  0  0
   -0.5703   -1.7275    0.0977 C   0  0  0  0  0  0  0  0  0  0  0  0
    0.5348   -0.8820    0.2412 N   0  0  0  0  0  0  0  0  0  0  0  0
    1.6209   -1.1059   -0.6761 C   0  0  0  0  0  0  0  0  0  0  0  0
    2.6052   -0.0152   -0.2459 C   0  0  2  0  0  0  0  0  0  0  0  0
    3.2440   -0.3581    0.9333 O   0  0  0  0  0  0  0  0  0  0  0  0
    1.6488    1.1459   -0.0052 C   0  0  2  0  0  0  0  0  0  0  0  0
    2.1586    1.9262    1.0072 O   0  0  0  0  0  0  0  0  0  0  0  0
    0.3148    0.5071    0.3582 C   0  0  1  0  0  0  0  0  0  0  0  0
   -0.6973    0.9673   -0.6339 C   0  0  2  0  0  0  0  0  0  0  0  0
   -0.8068    2.3181   -0.7819 O   0  0  0  0  0  0  0  0  0  0  0  0
   -1.8671   -0.3772    1.8039 H   0  0  0  0  0  0  0  0  0  0  0  0
   -3.4186    0.3455    1.3427 H   0  0  0  0  0  0  0  0  0  0  0  0
   -2.0301    1.4521    1.6121 H   0  0  0  0  0  0  0  0  0  0  0  0
   -2.8521    0.6473   -0.8655 H   0  0  0  0  0  0  0  0  0  0  0  0
   -1.8372   -1.3228   -1.6029 H   0  0  0  0  0  0  0  0  0  0  0  0
   -2.6889   -1.7059   -0.0890 H   0  0  0  0  0  0  0  0  0  0  0  0
   -0.8222   -2.1880    1.0971 H   0  0  0  0  0  0  0  0  0  0  0  0
   -0.2608   -2.6173   -0.5281 H   0  0  0  0  0  0  0  0  0  0  0  0
    1.3029   -0.8599   -1.7004 H   0  0  0  0  0  0  0  0  0  0  0  0
    2.0494   -2.1131   -0.5596 H   0  0  0  0  0  0  0  0  0  0  0  0
    3.3025    0.1804   -1.0670 H   0  0  0  0  0  0  0  0  0  0  0  0
    3.5746   -1.2774    0.8462 H   0  0  0  0  0  0  0  0  0  0  0  0
    1.5811    1.7256   -0.9509 H   0  0  0  0  0  0  0  0  0  0  0  0
    1.6381    1.9108    1.8381 H   0  0  0  0  0  0  0  0  0  0  0  0
    0.0234    0.8319    1.3814 H   0  0  0  0  0  0  0  0  0  0  0  0
   -0.4238    0.5051   -1.6263 H   0  0  0  0  0  0  0  0  0  0  0  0
   -1.1898    2.4851   -1.7022 H   0  0  0  0  0  0  0  0  0  0  0  0
  1  2  1  0
  2  3  1  0
  3  4  1  0
  4  5  1  0
  5  6  1  0
  6  7  1  0
  7  8  1  0
  7  9  1  0
  9 10  1  0
  9 11  1  0
 11 12  1  0
 12 13  1  0
 12  2  1  0
 11  5  1  0
  1 14  1  0
  1 15  1  0
  1 16  1  0
  2 17  1  6
  3 18  1  0
  3 19  1  0
  4 20  1  0
  4 21  1  0
  6 22  1  0
  6 23  1  0
  7 24  1  6
  8 25  1  0
  9 26  1  6
 10 27  1  0
 11 28  1  1
 12 29  1  6
 13 30  1  0
M  END
$$$$

     RDKit          3D

 30 31  0  0  0  0  0  0  0  0999 V2000
   -3.1316    1.0361   -0.0995 C   0  0  0  0  0  0  0  0  0  0  0  0
   -1.8038    0.4043   -0.4711 C   0  0  2  0  0  0  0  0  0  0  0  0
   -1.8334   -1.1095   -0.2486 C   0  0  0  0  0  0  0  0  0  0  0  0
   -0.5122   -1.6370   -0.7104 C   0  0  0  0  0  0  0  0  0  0  0  0
    0.5434   -1.0911    0.0147 N   0  0  0  0  0  0  0  0  0  0  0  0
    1.8614   -1.4297   -0.3795 C   0  0  0  0  0  0  0  0  0  0  0  0
    2.4474   -0.1064   -0.8073 C   0  0  2  0  0  0  0  0  0  0  0  0
    3.7978   -0.0188   -0.4557 O   0  0  0  0  0  0  0  0  0  0  0  0
    1.6236    0.9403   -0.0842 C   0  0  2  0  0  0  0  0  0  0  0  0
    2.3955    1.6085    0.8473 O   0  0  0  0  0  0  0  0  0  0  0  0
    0.4711    0.1713    0.5742 C   0  0  1  0  0  0  0  0  0  0  0  0
   -0.7668    0.9535    0.4664 C   0  0  2  0  0  0  0  0  0  0  0  0
   -1.3985    1.0826    1.7259 O   0  0  0  0  0  0  0  0  0  0  0  0
   -3.1916    1.2326    0.9860 H   0  0  0  0  0  0  0  0  0  0  0  0
   -3.1508    2.0418   -0.5993 H   0  0  0  0  0  0  0  0  0  0  0  0
   -3.9888    0.4269   -0.4113 H   0  0  0  0  0  0  0  0  0  0  0  0
   -1.5582    0.5742   -1.5339 H   0  0  0  0  0  0  0  0  0  0  0  0
   -2.6359   -1.5996   -0.8035 H   0  0  0  0  0  0  0  0  0  0  0  0
   -1.8960   -1.2850    0.8501 H   0  0  0  0  0  0  0  0  0  0  0  0
   -0.5321   -2.7531   -0.5428 H   0  0  0  0  0  0  0  0  0  0  0  0
   -0.4319   -1.5343   -1.8275 H   0  0  0  0  0  0  0  0  0  0  0  0
    2.4259   -1.7441    0.5370 H   0  0  0  0  0  0  0  0  0  0  0  0
    1.9221   -2.1919   -1.1720 H   0  0  0  0  0  0  0  0  0  0  0  0
    2.3934    0.0200   -1.9048 H   0  0  0  0  0  0  0  0  0  0  0  0
    4.0767    0.9326   -0.5022 H   0  0  0  0  0  0  0  0  0  0  0  0
    1.2495    1.6917   -0.8029 H   0  0  0  0  0  0  0  0  0  0  0  0
    2.5877    0.9645    1.5861 H   0  0  0  0  0  0  0  0  0  0  0  0
    0.7575    0.1140    1.6666 H   0  0  0  0  0  0  0  0  0  0  0  0
   -0.5745    2.0125    0.1440 H   0  0  0  0  0  0  0  0  0  0  0  0
   -1.1468    0.2931    2.2737 H   0  0  0  0  0  0  0  0  0  0  0  0
  1  2  1  0
  2  3  1  0
  3  4  1  0
  4  5  1  0
  5  6  1  0
  6  7  1  0
  7  8  1  0
  7  9  1  0
  9 10  1  0
  9 11  1  0
 11 12  1  0
 12 13  1  0
 12  2  1  0
 11  5  1  0
  1 14  1  0
  1 15  1  0
  1 16  1  0
  2 17  1  6
  3 18  1  0
  3 19  1  0
  4 20  1  0
  4 21  1  0
  6 22  1  0
  6 23  1  0
  7 24  1  6
  8 25  1  0
  9 26  1  6
 10 27  1  0
 11 28  1  1
 12 29  1  6
 13 30  1  0
M  END
$$$$

     RDKit          3D

 30 31  0  0  0  0  0  0  0  0999 V2000
   -3.0495    0.0529    0.6253 C   0  0  0  0  0  0  0  0  0  0  0  0
   -1.9815    0.0213   -0.4765 C   0  0  2  0  0  0  0  0  0  0  0  0
   -1.5244   -1.3692   -0.7599 C   0  0  0  0  0  0  0  0  0  0  0  0
   -0.3761   -1.8188    0.1135 C   0  0  0  0  0  0  0  0  0  0  0  0
    0.6323   -0.8861    0.0413 N   0  0  0  0  0  0  0  0  0  0  0  0
    1.9765   -1.1981    0.0434 C   0  0  0  0  0  0  0  0  0  0  0  0
    2.6690    0.1677   -0.0966 C   0  0  2  0  0  0  0  0  0  0  0  0
    3.0763    0.6542    1.1300 O   0  0  0  0  0  0  0  0  0  0  0  0
    1.5464    1.0562   -0.5965 C   0  0  2  0  0  0  0  0  0  0  0  0
    1.7430    2.3831   -0.3542 O   0  0  0  0  0  0  0  0  0  0  0  0
    0.3923    0.4697    0.2385 C   0  0  1  0  0  0  0  0  0  0  0  0
   -0.9271    1.0057   -0.1560 C   0  0  2  0  0  0  0  0  0  0  0  0
   -1.3585    1.8590    0.8802 O   0  0  0  0  0  0  0  0  0  0  0  0
   -2.6198   -0.1365    1.6161 H   0  0  0  0  0  0  0  0  0  0  0  0
   -3.9009   -0.6080    0.3690 H   0  0  0  0  0  0  0  0  0  0  0  0
   -3.4446    1.1002    0.6083 H   0  0  0  0  0  0  0  0  0  0  0  0
   -2.5297    0.3777   -1.3878 H   0  0  0  0  0  0  0  0  0  0  0  0
   -2.3802   -2.0647   -0.6927 H   0  0  0  0  0  0  0  0  0  0  0  0
   -1.1388   -1.4093   -1.8168 H   0  0  0  0  0  0  0  0  0  0  0  0
   -0.0442   -2.8008   -0.2781 H   0  0  0  0  0  0  0  0  0  0  0  0
   -0.7426   -1.9782    1.1424 H   0  0  0  0  0  0  0  0  0  0  0  0
    2.3127   -1.6191    1.0005 H   0  0  0  0  0  0  0  0  0  0  0  0
    2.3420   -1.8285   -0.7850 H   0  0  0  0  0  0  0  0  0  0  0  0
    3.5090    0.1110   -0.8111 H   0  0  0  0  0  0  0  0  0  0  0  0
    3.1312   -0.0180    1.8339 H   0  0  0  0  0  0  0  0  0  0  0  0
    1.3731    0.7978   -1.6650 H   0  0  0  0  0  0  0  0  0  0  0  0
    1.9592    2.8463   -1.2222 H   0  0  0  0  0  0  0  0  0  0  0  0
    0.6749    0.7279    1.3026 H   0  0  0  0  0  0  0  0  0  0  0  0
   -0.7447    1.7074   -1.0241 H   0  0  0  0  0  0  0  0  0  0  0  0
   -0.5756    2.3971    1.1773 H   0  0  0  0  0  0  0  0  0  0  0  0
  1  2  1  0
  2  3  1  0
  3  4  1  0
  4  5  1  0
  5  6  1  0
  6  7  1  0
  7  8  1  0
  7  9  1  0
  9 10  1  0
  9 11  1  0
 11 12  1  0
 12 13  1  0
 12  2  1  0
 11  5  1  0
  1 14  1  0
  1 15  1  0
  1 16  1  0
  2 17  1  6
  3 18  1  0
  3 19  1  0
  4 20  1  0
  4 21  1  0
  6 22  1  0
  6 23  1  0
  7 24  1  6
  8 25  1  0
  9 26  1  6
 10 27  1  0
 11 28  1  1
 12 29  1  6
 13 30  1  0
M  END
$$$$

     RDKit          3D

 30 31  0  0  0  0  0  0  0  0999 V2000
    3.2100    0.5049    0.3662 C   0  0  0  0  0  0  0  0  0  0  0  0
    1.8089    0.2788    0.8600 C   0  0  2  0  0  0  0  0  0  0  0  0
    1.4681   -1.1853    0.5597 C   0  0  0  0  0  0  0  0  0  0  0  0
    0.0874   -1.5391    1.0778 C   0  0  0  0  0  0  0  0  0  0  0  0
   -0.7681   -0.4081    0.8955 N   0  0  0  0  0  0  0  0  0  0  0  0
   -2.1515   -0.7141    0.7372 C   0  0  0  0  0  0  0  0  0  0  0  0
   -2.6118   -0.0673   -0.5667 C   0  0  2  0  0  0  0  0  0  0  0  0
   -2.3778   -0.9460   -1.6067 O   0  0  0  0  0  0  0  0  0  0  0  0
   -1.5591    1.0440   -0.6985 C   0  0  2  0  0  0  0  0  0  0  0  0
   -1.5021    1.5451   -1.9827 O   0  0  0  0  0  0  0  0  0  0  0  0
   -0.3262    0.2981   -0.2935 C   0  0  1  0  0  0  0  0  0  0  0  0
    0.8223    1.1724    0.0942 C   0  0  2  0  0  0  0  0  0  0  0  0
    1.4313    1.7982   -0.9778 O   0  0  0  0  0  0  0  0  0  0  0  0
    3.8507   -0.3093    0.7542 H   0  0  0  0  0  0  0  0  0  0  0  0
    3.2526    0.5689   -0.7298 H   0  0  0  0  0  0  0  0  0  0  0  0
    3.5756    1.4515    0.7847 H   0  0  0  0  0  0  0  0  0  0  0  0
    1.7396    0.4320    1.9442 H   0  0  0  0  0  0  0  0  0  0  0  0
    2.2636   -1.7839    1.0883 H   0  0  0  0  0  0  0  0  0  0  0  0
    1.5970   -1.4057   -0.5096 H   0  0  0  0  0  0  0  0  0  0  0  0
   -0.2840   -2.3634    0.4063 H   0  0  0  0  0  0  0  0  0  0  0  0
    0.2006   -1.8725    2.1137 H   0  0  0  0  0  0  0  0  0  0  0  0
   -2.7081   -0.1529    1.5441 H   0  0  0  0  0  0  0  0  0  0  0  0
   -2.4002   -1.7778    0.7926 H   0  0  0  0  0  0  0  0  0  0  0  0
   -3.6253    0.3264   -0.5129 H   0  0  0  0  0  0  0  0  0  0  0  0
   -2.7981   -1.8437   -1.4684 H   0  0  0  0  0  0  0  0  0  0  0  0
   -1.8559    1.8057    0.0615 H   0  0  0  0  0  0  0  0  0  0  0  0
   -2.0801    2.3360   -2.0326 H   0  0  0  0  0  0  0  0  0  0  0  0
   -0.0789   -0.4098   -1.1108 H   0  0  0  0  0  0  0  0  0  0  0  0
    0.4290    1.9469    0.7967 H   0  0  0  0  0  0  0  0  0  0  0  0
    1.3907    1.2700   -1.8115 H   0  0  0  0  0  0  0  0  0  0  0  0
  1  2  1  0
  2  3  1  0
  3  4  1  0
  4  5  1  0
  5  6  1  0
  6  7  1  0
  7  8  1  0
  7  9  1  0
  9 10  1  0
  9 11  1  0
 11 12  1  0
 12 13  1  0
 12  2  1  0
 11  5  1  0
  1 14  1  0
  1 15  1  0
  1 16  1  0
  2 17  1  1
  3 18  1  0
  3 19  1  0
  4 20  1  0
  4 21  1  0
  6 22  1  0
  6 23  1  0
  7 24  1  1
  8 25  1  0
  9 26  1  1
 10 27  1  0
 11 28  1  6
 12 29  1  1
 13 30  1  0
M  END
$$$$

     RDKit          3D

 30 31  0  0  0  0  0  0  0  0999 V2000
    3.1854    0.6732    0.2508 C   0  0  0  0  0  0  0  0  0  0  0  0
    1.7615    0.2499    0.5192 C   0  0  2  0  0  0  0  0  0  0  0  0
    1.6865   -1.2465    0.5060 C   0  0  0  0  0  0  0  0  0  0  0  0
    0.2407   -1.7439    0.3660 C   0  0  0  0  0  0  0  0  0  0  0  0
   -0.5904   -0.6108    0.6012 N   0  0  0  0  0  0  0  0  0  0  0  0
   -1.9822   -0.8635    0.6773 C   0  0  0  0  0  0  0  0  0  0  0  0
   -2.5621    0.5508    0.5279 C   0  0  2  0  0  0  0  0  0  0  0  0
   -3.8683    0.4811    0.1065 O   0  0  0  0  0  0  0  0  0  0  0  0
   -1.6392    1.1505   -0.5413 C   0  0  2  0  0  0  0  0  0  0  0  0
   -2.3672    1.0432   -1.7486 O   0  0  0  0  0  0  0  0  0  0  0  0
   -0.4777    0.2303   -0.6022 C   0  0  1  0  0  0  0  0  0  0  0  0
    0.8598    0.8825   -0.5433 C   0  0  2  0  0  0  0  0  0  0  0  0
    1.5372    0.7448   -1.7564 O   0  0  0  0  0  0  0  0  0  0  0  0
    3.2963    1.1830   -0.7329 H   0  0  0  0  0  0  0  0  0  0  0  0
    3.5462    1.3967    1.0265 H   0  0  0  0  0  0  0  0  0  0  0  0
    3.8592   -0.2089    0.2463 H   0  0  0  0  0  0  0  0  0  0  0  0
    1.4224    0.6436    1.4986 H   0  0  0  0  0  0  0  0  0  0  0  0
    2.0017   -1.6064    1.5293 H   0  0  0  0  0  0  0  0  0  0  0  0
    2.3476   -1.6857   -0.2427 H   0  0  0  0  0  0  0  0  0  0  0  0
    0.1490   -2.0139   -0.7270 H   0  0  0  0  0  0  0  0  0  0  0  0
    0.0419   -2.6214    0.9730 H   0  0  0  0  0  0  0  0  0  0  0  0
   -2.2729   -1.2127    1.6876 H   0  0  0  0  0  0  0  0  0  0  0  0
   -2.3383   -1.4836   -0.1429 H   0  0  0  0  0  0  0  0  0  0  0  0
   -2.4290    1.1051    1.4653 H   0  0  0  0  0  0  0  0  0  0  0  0
   -4.0481    1.2427   -0.4956 H   0  0  0  0  0  0  0  0  0  0  0  0
   -1.4025    2.1953   -0.3494 H   0  0  0  0  0  0  0  0  0  0  0  0
   -2.1611    0.1594   -2.1674 H   0  0  0  0  0  0  0  0  0  0  0  0
   -0.5251   -0.4239   -1.4988 H   0  0  0  0  0  0  0  0  0  0  0  0
    0.8041    1.9650   -0.3179 H   0  0  0  0  0  0  0  0  0  0  0  0
    1.9247   -0.1758   -1.8045 H   0  0  0  0  0  0  0  0  0  0  0  0
  1  2  1  0
  2  3  1  0
  3  4  1  0
  4  5  1  0
  5  6  1  0
  6  7  1  0
  7  8  1  0
  7  9  1  0
  9 10  1  0
  9 11  1  0
 11 12  1  0
 12 13  1  0
 12  2  1  0
 11  5  1  0
  1 14  1  0
  1 15  1  0
  1 16  1  0
  2 17  1  1
  3 18  1  0
  3 19  1  0
  4 20  1  0
  4 21  1  0
  6 22  1  0
  6 23  1  0
  7 24  1  1
  8 25  1  0
  9 26  1  1
 10 27  1  0
 11 28  1  6
 12 29  1  1
 13 30  1  0
M  END
$$$$

     RDKit          3D

 30 31  0  0  0  0  0  0  0  0999 V2000
    3.1785    0.4703   -0.5243 C   0  0  0  0  0  0  0  0  0  0  0  0
    2.0259    0.0536    0.3995 C   0  0  2  0  0  0  0  0  0  0  0  0
    1.6905   -1.3591    0.0720 C   0  0  0  0  0  0  0  0  0  0  0  0
    0.3495   -1.8146    0.5067 C   0  0  0  0  0  0  0  0  0  0  0  0
   -0.5723   -0.7820    0.8446 N   0  0  0  0  0  0  0  0  0  0  0  0
   -1.9566   -1.1319    0.5672 C   0  0  0  0  0  0  0  0  0  0  0  0
   -2.6953    0.1769    0.3723 C   0  0  2  0  0  0  0  0  0  0  0  0
   -3.2054    0.2617   -0.9354 O   0  0  0  0  0  0  0  0  0  0  0  0
   -1.5788    1.2281    0.4387 C   0  0  2  0  0  0  0  0  0  0  0  0
   -1.8261    2.3002   -0.3792 O   0  0  0  0  0  0  0  0  0  0  0  0
   -0.4054    0.3751   -0.0494 C   0  0  1  0  0  0  0  0  0  0  0  0
    0.9118    1.0281    0.1708 C   0  0  2  0  0  0  0  0  0  0  0  0
    1.1642    1.8886   -0.9127 O   0  0  0  0  0  0  0  0  0  0  0  0
    2.7606    0.4663   -1.5625 H   0  0  0  0  0  0  0  0  0  0  0  0
    3.5522    1.4675   -0.2981 H   0  0  0  0  0  0  0  0  0  0  0  0
    3.9558   -0.3289   -0.4338 H   0  0  0  0  0  0  0  0  0  0  0  0
    2.3927    0.1115    1.4464 H   0  0  0  0  0  0  0  0  0  0  0  0
    1.8300   -1.5304   -1.0258 H   0  0  0  0  0  0  0  0  0  0  0  0
    2.4779   -2.0071    0.5573 H   0  0  0  0  0  0  0  0  0  0  0  0
   -0.1151   -2.4296   -0.3121 H   0  0  0  0  0  0  0  0  0  0  0  0
    0.4084   -2.5159    1.3786 H   0  0  0  0  0  0  0  0  0  0  0  0
   -1.9357   -1.7443   -0.3635 H   0  0  0  0  0  0  0  0  0  0  0  0
   -2.3678   -1.6899    1.4229 H   0  0  0  0  0  0  0  0  0  0  0  0
   -3.4733    0.3494    1.1150 H   0  0  0  0  0  0  0  0  0  0  0  0
   -3.8022   -0.4980   -1.1330 H   0  0  0  0  0  0  0  0  0  0  0  0
   -1.4142    1.4983    1.5070 H   0  0  0  0  0  0  0  0  0  0  0  0
   -2.3987    2.9338    0.1103 H   0  0  0  0  0  0  0  0  0  0  0  0
   -0.6165    0.0918   -1.0960 H   0  0  0  0  0  0  0  0  0  0  0  0
    0.8216    1.6969    1.0594 H   0  0  0  0  0  0  0  0  0  0  0  0
    0.8439    1.4337   -1.7294 H   0  0  0  0  0  0  0  0  0  0  0  0
  1  2  1  0
  2  3  1  0
  3  4  1  0
  4  5  1  0
  5  6  1  0
  6  7  1  0
  7  8  1  0
  7  9  1  0
  9 10  1  0
  9 11  1  0
 11 12  1  0
 12 13  1  0
 12  2  1  0
 11  5  1  0
  1 14  1  0
  1 15  1  0
  1 16  1  0
  2 17  1  1
  3 18  1  0
  3 19  1  0
  4 20  1  0
  4 21  1  0
  6 22  1  0
  6 23  1  0
  7 24  1  1
  8 25  1  0
  9 26  1  1
 10 27  1  0
 11 28  1  6
 12 29  1  1
 13 30  1  0
M  END
$$$$

     RDKit          3D

 30 31  0  0  0  0  0  0  0  0999 V2000
    2.5446    0.3018    1.0122 C   0  0  0  0  0  0  0  0  0  0  0  0
    1.9928   -0.6260   -0.0457 C   0  0  2  0  0  0  0  0  0  0  0  0
    1.9331    0.1147   -1.3424 C   0  0  0  0  0  0  0  0  0  0  0  0
    0.7551    1.1000   -1.2990 C   0  0  0  0  0  0  0  0  0  0  0  0
   -0.4177    0.3253   -1.0558 N   0  0  0  0  0  0  0  0  0  0  0  0
   -1.6527    1.0060   -1.2373 C   0  0  0  0  0  0  0  0  0  0  0  0
   -2.6209    0.2374   -0.3815 C   0  0  2  0  0  0  0  0  0  0  0  0
   -3.2551    1.0772    0.5463 O   0  0  0  0  0  0  0  0  0  0  0  0
   -1.7828   -0.7476    0.4345 C   0  0  2  0  0  0  0  0  0  0  0  0
   -2.2140   -0.7983    1.7554 O   0  0  0  0  0  0  0  0  0  0  0  0
   -0.3993   -0.1727    0.3113 C   0  0  1  0  0  0  0  0  0  0  0  0
    0.6883   -1.2017    0.3988 C   0  0  2  0  0  0  0  0  0  0  0  0
    0.8450   -1.6229    1.7279 O   0  0  0  0  0  0  0  0  0  0  0  0
    1.6965    0.8540    1.4489 H   0  0  0  0  0  0  0  0  0  0  0  0
    3.0200   -0.3127    1.7904 H   0  0  0  0  0  0  0  0  0  0  0  0
    3.2353    1.0342    0.5385 H   0  0  0  0  0  0  0  0  0  0  0  0
    2.7028   -1.4814   -0.1877 H   0  0  0  0  0  0  0  0  0  0  0  0
    2.8518    0.6925   -1.4856 H   0  0  0  0  0  0  0  0  0  0  0  0
    1.7155   -0.5567   -2.2127 H   0  0  0  0  0  0  0  0  0  0  0  0
    0.9208    1.8492   -0.4878 H   0  0  0  0  0  0  0  0  0  0  0  0
    0.6365    1.5937   -2.2904 H   0  0  0  0  0  0  0  0  0  0  0  0
   -1.5214    2.0602   -0.9132 H   0  0  0  0  0  0  0  0  0  0  0  0
   -1.9126    0.9404   -2.3339 H   0  0  0  0  0  0  0  0  0  0  0  0
   -3.3548   -0.3425   -0.9751 H   0  0  0  0  0  0  0  0  0  0  0  0
   -3.5058    0.6064    1.3689 H   0  0  0  0  0  0  0  0  0  0  0  0
   -1.8149   -1.7462   -0.0511 H   0  0  0  0  0  0  0  0  0  0  0  0
   -1.6310   -0.2119    2.2949 H   0  0  0  0  0  0  0  0  0  0  0  0
   -0.2986    0.6236    1.0591 H   0  0  0  0  0  0  0  0  0  0  0  0
    0.4120   -2.0743   -0.2213 H   0  0  0  0  0  0  0  0  0  0  0  0
    0.4314   -2.5215    1.8331 H   0  0  0  0  0  0  0  0  0  0  0  0
  1  2  1  0
  2  3  1  0
  3  4  1  0
  4  5  1  0
  5  6  1  0
  6  7  1  0
  7  8  1  0
  7  9  1  0
  9 10  1  0
  9 11  1  0
 11 12  1  0
 12 13  1  0
 12  2  1  0
 11  5  1  0
  1 14  1  0
  1 15  1  0
  1 16  1  0
  2 17  1  6
  3 18  1  0
  3 19  1  0
  4 20  1  0
  4 21  1  0
  6 22  1  0
  6 23  1  0
  7 24  1  6
  8 25  1  0
  9 26  1  6
 10 27  1  0
 11 28  1  1
 12 29  1  6
 13 30  1  0
M  END
$$$$

     RDKit          3D

 30 31  0  0  0  0  0  0  0  0999 V2000
    3.0510    0.5095   -0.7241 C   0  0  0  0  0  0  0  0  0  0  0  0
    2.0393    0.1502    0.3728 C   0  0  2  0  0  0  0  0  0  0  0  0
    1.8183   -1.3082    0.3219 C   0  0  0  0  0  0  0  0  0  0  0  0
    0.5259   -1.7359   -0.3171 C   0  0  0  0  0  0  0  0  0  0  0  0
   -0.5185   -0.9623    0.2416 N   0  0  0  0  0  0  0  0  0  0  0  0
   -1.8395   -1.2857   -0.1930 C   0  0  0  0  0  0  0  0  0  0  0  0
   -2.6310   -0.1744    0.5149 C   0  0  2  0  0  0  0  0  0  0  0  0
   -3.8275    0.0774   -0.0967 O   0  0  0  0  0  0  0  0  0  0  0  0
   -1.6577    1.0060    0.4054 C   0  0  2  0  0  0  0  0  0  0  0  0
   -2.1796    2.0450   -0.3250 O   0  0  0  0  0  0  0  0  0  0  0  0
   -0.3937    0.4227   -0.2060 C   0  0  1  0  0  0  0  0  0  0  0  0
    0.8536    1.0226    0.3065 C   0  0  2  0  0  0  0  0  0  0  0  0
    1.1724    2.1270   -0.5190 O   0  0  0  0  0  0  0  0  0  0  0  0
    3.2903    1.5926   -0.6904 H   0  0  0  0  0  0  0  0  0  0  0  0
    2.7461    0.1477   -1.7055 H   0  0  0  0  0  0  0  0  0  0  0  0
    3.9898   -0.0411   -0.4221 H   0  0  0  0  0  0  0  0  0  0  0  0
    2.5867    0.3814    1.3350 H   0  0  0  0  0  0  0  0  0  0  0  0
    2.6431   -1.8341   -0.2121 H   0  0  0  0  0  0  0  0  0  0  0  0
    1.8084   -1.7421    1.3647 H   0  0  0  0  0  0  0  0  0  0  0  0
    0.3577   -2.8093   -0.0176 H   0  0  0  0  0  0  0  0  0  0  0  0
    0.5731   -1.7452   -1.4237 H   0  0  0  0  0  0  0  0  0  0  0  0
   -1.9961   -1.0752   -1.2904 H   0  0  0  0  0  0  0  0  0  0  0  0
   -2.1946   -2.2813    0.0863 H   0  0  0  0  0  0  0  0  0  0  0  0
   -2.7200   -0.5189    1.5733 H   0  0  0  0  0  0  0  0  0  0  0  0
   -4.1030   -0.6583   -0.6709 H   0  0  0  0  0  0  0  0  0  0  0  0
   -1.3965    1.3060    1.4584 H   0  0  0  0  0  0  0  0  0  0  0  0
   -2.4715    2.7446    0.3411 H   0  0  0  0  0  0  0  0  0  0  0  0
   -0.5321    0.5056   -1.3153 H   0  0  0  0  0  0  0  0  0  0  0  0
    0.6246    1.4916    1.3084 H   0  0  0  0  0  0  0  0  0  0  0  0
    0.3813    2.6420   -0.7598 H   0  0  0  0  0  0  0  0  0  0  0  0
  1  2  1  0
  2  3  1  0
  3  4  1  0
  4  5  1  0
  5  6  1  0
  6  7  1  0
  7  8  1  0
  7  9  1  0
  9 10  1  0
  9 11  1  0
 11 12  1  0
 12 13  1  0
 12  2  1  0
 11  5  1  0
  1 14  1  0
  1 15  1  0
  1 16  1  0
  2 17  1  1
  3 18  1  0
  3 19  1  0
  4 20  1  0
  4 21  1  0
  6 22  1  0
  6 23  1  0
  7 24  1  1
  8 25  1  0
  9 26  1  1
 10 27  1  0
 11 28  1  6
 12 29  1  1
 13 30  1  0
M  END
$$$$
