
     RDKit          3D

 23 23  0  0  0  0  0  0  0  0999 V2000
    3.3618   -0.4757   -0.7819 C   0  0  0  0  0  0  0  0  0  0  0  0
    1.9828   -0.4810   -0.5946 O   0  0  0  0  0  0  0  0  0  0  0  0
    1.5779    0.3410    0.4279 C   0  0  0  0  0  0  0  0  0  0  0  0
    0.0789    0.2906    0.5789 C   0  0  2  0  0  0  0  0  0  0  0  0
   -0.3808   -0.9952    0.8642 O   0  0  0  0  0  0  0  0  0  0  0  0
   -1.7631   -0.7798    0.7459 C   0  0  2  0  0  0  0  0  0  0  0  0
   -2.5052   -1.9142    0.9595 O   0  0  0  0  0  0  0  0  0  0  0  0
   -1.8313   -0.2749   -0.6818 C   0  0  1  0  0  0  0  0  0  0  0  0
   -3.0108    0.3506   -0.9835 O   0  0  0  0  0  0  0  0  0  0  0  0
   -0.6377    0.6890   -0.6890 C   0  0  1  0  0  0  0  0  0  0  0  0
   -1.1047    2.0117   -0.5410 O   0  0  0  0  0  0  0  0  0  0  0  0
    3.6263    0.5947   -1.0209 H   0  0  0  0  0  0  0  0  0  0  0  0
    3.6413   -1.0557   -1.6844 H   0  0  0  0  0  0  0  0  0  0  0  0
    3.9284   -0.8281    0.0804 H   0  0  0  0  0  0  0  0  0  0  0  0
    2.0835    0.1881    1.3856 H   0  0  0  0  0  0  0  0  0  0  0  0
    1.8198    1.3932    0.1141 H   0  0  0  0  0  0  0  0  0  0  0  0
   -0.2807    0.9379    1.4039 H   0  0  0  0  0  0  0  0  0  0  0  0
   -2.0298    0.0694    1.4069 H   0  0  0  0  0  0  0  0  0  0  0  0
   -2.1442   -2.4145    1.7302 H   0  0  0  0  0  0  0  0  0  0  0  0
   -1.6416   -1.1223   -1.3534 H   0  0  0  0  0  0  0  0  0  0  0  0
   -3.4566    0.7653   -0.2144 H   0  0  0  0  0  0  0  0  0  0  0  0
   -0.0248    0.5685   -1.5927 H   0  0  0  0  0  0  0  0  0  0  0  0
   -1.2894    2.1416    0.4401 H   0  0  0  0  0  0  0  0  0  0  0  0
  1  2  1  0
  2  3  1  0
  3  4  1  0
  4  5  1  0
  5  6  1  0
  6  7  1  0
  6  8  1  0
  8  9  1  0
  8 10  1  0
 10 11  1  0
 10  4  1  0
  1 12  1  0
  1 13  1  0
  1 14  1  0
  3 15  1  0
  3 16  1  0
  4 17  1  1
  6 18  1  1
  7 19  1  0
  8 20  1  6
  9 21  1  0
 10 22  1  6
 11 23  1  0
M  END
$$$$

     RDKit          3D

 23 23  0  0  0  0  0  0  0  0999 V2000
    3.5409    0.5931   -0.4794 C   0  0  0  0  0  0  0  0  0  0  0  0
    2.1522    0.6939   -0.4873 O   0  0  0  0  0  0  0  0  0  0  0  0
    1.5751   -0.0392    0.5488 C   0  0  0  0  0  0  0  0  0  0  0  0
    0.0908    0.1346    0.4516 C   0  0  2  0  0  0  0  0  0  0  0  0
   -0.6146   -0.5481    1.4319 O   0  0  0  0  0  0  0  0  0  0  0  0
   -1.9322   -0.2230    1.0690 C   0  0  2  0  0  0  0  0  0  0  0  0
   -2.8643   -0.9338    1.7817 O   0  0  0  0  0  0  0  0  0  0  0  0
   -1.9833   -0.5034   -0.4192 C   0  0  1  0  0  0  0  0  0  0  0  0
   -2.6108    0.5493   -1.1098 O   0  0  0  0  0  0  0  0  0  0  0  0
   -0.5002   -0.4217   -0.8072 C   0  0  1  0  0  0  0  0  0  0  0  0
   -0.2973    0.4032   -1.8907 O   0  0  0  0  0  0  0  0  0  0  0  0
    3.7916   -0.4807   -0.6007 H   0  0  0  0  0  0  0  0  0  0  0  0
    3.9033    0.8908    0.5425 H   0  0  0  0  0  0  0  0  0  0  0  0
    3.9968    1.2429   -1.2345 H   0  0  0  0  0  0  0  0  0  0  0  0
    1.9000   -1.0791    0.4949 H   0  0  0  0  0  0  0  0  0  0  0  0
    1.9053    0.4132    1.5064 H   0  0  0  0  0  0  0  0  0  0  0  0
   -0.1766    1.1907    0.5224 H   0  0  0  0  0  0  0  0  0  0  0  0
   -2.0281    0.8786    1.2531 H   0  0  0  0  0  0  0  0  0  0  0  0
   -3.0188   -0.4595    2.6382 H   0  0  0  0  0  0  0  0  0  0  0  0
   -2.4171   -1.4764   -0.6359 H   0  0  0  0  0  0  0  0  0  0  0  0
   -3.5448    0.6639   -0.8692 H   0  0  0  0  0  0  0  0  0  0  0  0
   -0.1144   -1.4580   -1.0318 H   0  0  0  0  0  0  0  0  0  0  0  0
   -0.7535   -0.0313   -2.6748 H   0  0  0  0  0  0  0  0  0  0  0  0
  1  2  1  0
  2  3  1  0
  3  4  1  0
  4  5  1  0
  5  6  1  0
  6  7  1  0
  6  8  1  0
  8  9  1  0
  8 10  1  0
 10 11  1  0
 10  4  1  0
  1 12  1  0
  1 13  1  0
  1 14  1  0
  3 15  1  0
  3 16  1  0
  4 17  1  1
  6 18  1  6
  7 19  1  0
  8 20  1  1
  9 21  1  0
 10 22  1  6
 11 23  1  0
M  END
$$$$

     RDKit          3D

 23 23  0  0  0  0  0  0  0  0999 V2000
    3.4298    0.7376   -0.1983 C   0  0  0  0  0  0  0  0  0  0  0  0
    2.2731    0.3242   -0.8934 O   0  0  0  0  0  0  0  0  0  0  0  0
    1.3589   -0.0536    0.1024 C   0  0  0  0  0  0  0  0  0  0  0  0
    0.0529   -0.5272   -0.4825 C   0  0  2  0  0  0  0  0  0  0  0  0
   -0.5941    0.4119   -1.2425 O   0  0  0  0  0  0  0  0  0  0  0  0
   -1.6658    0.9082   -0.5336 C   0  0  2  0  0  0  0  0  0  0  0  0
   -1.3114    1.9417    0.3387 O   0  0  0  0  0  0  0  0  0  0  0  0
   -2.1577   -0.2824    0.2872 C   0  0  1  0  0  0  0  0  0  0  0  0
   -2.8828   -1.1664   -0.4823 O   0  0  0  0  0  0  0  0  0  0  0  0
   -0.8420   -0.9440    0.6416 C   0  0  1  0  0  0  0  0  0  0  0  0
   -0.9550   -2.3170    0.7754 O   0  0  0  0  0  0  0  0  0  0  0  0
    3.1570    1.5808    0.4539 H   0  0  0  0  0  0  0  0  0  0  0  0
    3.8004   -0.1093    0.4128 H   0  0  0  0  0  0  0  0  0  0  0  0
    4.2117    0.9782   -0.9375 H   0  0  0  0  0  0  0  0  0  0  0  0
    1.1259    0.8068    0.7700 H   0  0  0  0  0  0  0  0  0  0  0  0
    1.8076   -0.8953    0.6553 H   0  0  0  0  0  0  0  0  0  0  0  0
    0.2734   -1.4255   -1.1201 H   0  0  0  0  0  0  0  0  0  0  0  0
   -2.4487    1.2185   -1.2587 H   0  0  0  0  0  0  0  0  0  0  0  0
   -1.6756    2.7756   -0.0505 H   0  0  0  0  0  0  0  0  0  0  0  0
   -2.6975    0.0501    1.1794 H   0  0  0  0  0  0  0  0  0  0  0  0
   -3.6890   -0.7856   -0.8985 H   0  0  0  0  0  0  0  0  0  0  0  0
   -0.5270   -0.5440    1.6320 H   0  0  0  0  0  0  0  0  0  0  0  0
   -0.0441   -2.6835    0.8492 H   0  0  0  0  0  0  0  0  0  0  0  0
  1  2  1  0
  2  3  1  0
  3  4  1  0
  4  5  1  0
  5  6  1  0
  6  7  1  0
  6  8  1  0
  8  9  1  0
  8 10  1  0
 10 11  1  0
 10  4  1  0
  1 12  1  0
  1 13  1  0
  1 14  1  0
  3 15  1  0
  3 16  1  0
  4 17  1  6
  6 18  1  6
  7 19  1  0
  8 20  1  1
  9 21  1  0
 10 22  1  1
 11 23  1  0
M  END
$$$$

     RDKit          3D

 23 23  0  0  0  0  0  0  0  0999 V2000
    3.0685    0.0724    0.9307 C   0  0  0  0  0  0  0  0  0  0  0  0
    2.1955   -0.9869    0.8342 O   0  0  0  0  0  0  0  0  0  0  0  0
    1.2632   -0.7771   -0.1486 C   0  0  0  0  0  0  0  0  0  0  0  0
    0.3997    0.4481    0.0553 C   0  0  2  0  0  0  0  0  0  0  0  0
   -0.3064    0.3890    1.2275 O   0  0  0  0  0  0  0  0  0  0  0  0
   -1.6455    0.2776    0.9830 C   0  0  2  0  0  0  0  0  0  0  0  0
   -2.3433   -0.4193    1.9585 O   0  0  0  0  0  0  0  0  0  0  0  0
   -1.6991   -0.4214   -0.3606 C   0  0  1  0  0  0  0  0  0  0  0  0
   -2.9431   -0.3089   -0.9594 O   0  0  0  0  0  0  0  0  0  0  0  0
   -0.6399    0.3920   -1.0779 C   0  0  1  0  0  0  0  0  0  0  0  0
   -1.0965    1.6815   -1.2570 O   0  0  0  0  0  0  0  0  0  0  0  0
    2.5965    1.0246    1.1717 H   0  0  0  0  0  0  0  0  0  0  0  0
    3.8179   -0.1629    1.7268 H   0  0  0  0  0  0  0  0  0  0  0  0
    3.5882    0.1666   -0.0532 H   0  0  0  0  0  0  0  0  0  0  0  0
    1.7896   -0.7029   -1.1395 H   0  0  0  0  0  0  0  0  0  0  0  0
    0.6481   -1.7011   -0.2282 H   0  0  0  0  0  0  0  0  0  0  0  0
    1.0295    1.3511   -0.0659 H   0  0  0  0  0  0  0  0  0  0  0  0
   -2.0801    1.2748    0.8513 H   0  0  0  0  0  0  0  0  0  0  0  0
   -2.2187   -1.3938    1.7555 H   0  0  0  0  0  0  0  0  0  0  0  0
   -1.3772   -1.4590   -0.2132 H   0  0  0  0  0  0  0  0  0  0  0  0
   -2.8564   -0.6952   -1.8689 H   0  0  0  0  0  0  0  0  0  0  0  0
   -0.2465   -0.0919   -1.9662 H   0  0  0  0  0  0  0  0  0  0  0  0
   -0.9443    2.0426   -2.1554 H   0  0  0  0  0  0  0  0  0  0  0  0
  1  2  1  0
  2  3  1  0
  3  4  1  0
  4  5  1  0
  5  6  1  0
  6  7  1  0
  6  8  1  0
  8  9  1  0
  8 10  1  0
 10 11  1  0
 10  4  1  0
  1 12  1  0
  1 13  1  0
  1 14  1  0
  3 15  1  0
  3 16  1  0
  4 17  1  1
  6 18  1  6
  7 19  1  0
  8 20  1  1
  9 21  1  0
 10 22  1  6
 11 23  1  0
M  END
$$$$

     RDKit          3D

 23 23  0  0  0  0  0  0  0  0999 V2000
    3.2463    1.0692   -0.2260 C   0  0  0  0  0  0  0  0  0  0  0  0
    1.8369    1.0063   -0.1599 O   0  0  0  0  0  0  0  0  0  0  0  0
    1.4882   -0.3046   -0.3662 C   0  0  0  0  0  0  0  0  0  0  0  0
    0.0125   -0.5566   -0.3290 C   0  0  2  0  0  0  0  0  0  0  0  0
   -0.6975    0.1366   -1.2677 O   0  0  0  0  0  0  0  0  0  0  0  0
   -1.9994    0.2528   -0.8621 C   0  0  2  0  0  0  0  0  0  0  0  0
   -2.3253    1.6175   -0.8447 O   0  0  0  0  0  0  0  0  0  0  0  0
   -2.0960   -0.2383    0.5610 C   0  0  1  0  0  0  0  0  0  0  0  0
   -2.4363   -1.6043    0.5609 O   0  0  0  0  0  0  0  0  0  0  0  0
   -0.6212   -0.1366    0.9741 C   0  0  1  0  0  0  0  0  0  0  0  0
   -0.3197   -1.0047    2.0075 O   0  0  0  0  0  0  0  0  0  0  0  0
    3.5043    0.7113   -1.2448 H   0  0  0  0  0  0  0  0  0  0  0  0
    3.6869    0.3376    0.4806 H   0  0  0  0  0  0  0  0  0  0  0  0
    3.6315    2.0648   -0.0006 H   0  0  0  0  0  0  0  0  0  0  0  0
    1.9446   -0.9065    0.4659 H   0  0  0  0  0  0  0  0  0  0  0  0
    1.9064   -0.6776   -1.3070 H   0  0  0  0  0  0  0  0  0  0  0  0
   -0.2007   -1.6359   -0.4563 H   0  0  0  0  0  0  0  0  0  0  0  0
   -2.7114   -0.3040   -1.5341 H   0  0  0  0  0  0  0  0  0  0  0  0
   -3.1956    1.6763   -0.3434 H   0  0  0  0  0  0  0  0  0  0  0  0
   -2.7468    0.3554    1.1978 H   0  0  0  0  0  0  0  0  0  0  0  0
   -1.7443   -2.1408    1.0599 H   0  0  0  0  0  0  0  0  0  0  0  0
   -0.4502    0.9250    1.2187 H   0  0  0  0  0  0  0  0  0  0  0  0
    0.2867   -0.6431    2.6797 H   0  0  0  0  0  0  0  0  0  0  0  0
  1  2  1  0
  2  3  1  0
  3  4  1  0
  4  5  1  0
  5  6  1  0
  6  7  1  0
  6  8  1  0
  8  9  1  0
  8 10  1  0
 10 11  1  0
 10  4  1  0
  1 12  1  0
  1 13  1  0
  1 14  1  0
  3 15  1  0
  3 16  1  0
  4 17  1  6
  6 18  1  6
  7 19  1  0
  8 20  1  1
  9 21  1  0
 10 22  1  1
 11 23  1  0
M  END
$$$$

     RDKit          3D

 23 23  0  0  0  0  0  0  0  0999 V2000
    3.6262    0.5145   -0.6035 C   0  0  0  0  0  0  0  0  0  0  0  0
    2.3037    0.7846   -1.0266 O   0  0  0  0  0  0  0  0  0  0  0  0
    1.5075   -0.1340   -0.3433 C   0  0  0  0  0  0  0  0  0  0  0  0
    0.0430    0.0099   -0.6771 C   0  0  2  0  0  0  0  0  0  0  0  0
   -0.4660    1.2407   -0.3721 O   0  0  0  0  0  0  0  0  0  0  0  0
   -1.8127    1.1024   -0.0764 C   0  0  2  0  0  0  0  0  0  0  0  0
   -2.1025    1.8560    1.0490 O   0  0  0  0  0  0  0  0  0  0  0  0
   -2.0764   -0.3370    0.2274 C   0  0  1  0  0  0  0  0  0  0  0  0
   -2.8069   -0.9555   -0.7895 O   0  0  0  0  0  0  0  0  0  0  0  0
   -0.7064   -0.9243    0.2804 C   0  0  1  0  0  0  0  0  0  0  0  0
   -0.6301   -2.2372   -0.1369 O   0  0  0  0  0  0  0  0  0  0  0  0
    4.3578    1.1721   -1.0697 H   0  0  0  0  0  0  0  0  0  0  0  0
    3.6297    0.5344    0.5060 H   0  0  0  0  0  0  0  0  0  0  0  0
    3.7842   -0.5683   -0.8766 H   0  0  0  0  0  0  0  0  0  0  0  0
    1.7029    0.0186    0.7420 H   0  0  0  0  0  0  0  0  0  0  0  0
    1.8821   -1.1391   -0.6217 H   0  0  0  0  0  0  0  0  0  0  0  0
   -0.1177   -0.3224   -1.7121 H   0  0  0  0  0  0  0  0  0  0  0  0
   -2.4410    1.4886   -0.9178 H   0  0  0  0  0  0  0  0  0  0  0  0
   -1.6526    2.7436    0.9566 H   0  0  0  0  0  0  0  0  0  0  0  0
   -2.5773   -0.4850    1.2181 H   0  0  0  0  0  0  0  0  0  0  0  0
   -3.7759   -0.7793   -0.6906 H   0  0  0  0  0  0  0  0  0  0  0  0
   -0.3002   -0.7868    1.2922 H   0  0  0  0  0  0  0  0  0  0  0  0
   -1.3711   -2.7966    0.1401 H   0  0  0  0  0  0  0  0  0  0  0  0
  1  2  1  0
  2  3  1  0
  3  4  1  0
  4  5  1  0
  5  6  1  0
  6  7  1  0
  6  8  1  0
  8  9  1  0
  8 10  1  0
 10 11  1  0
 10  4  1  0
  1 12  1  0
  1 13  1  0
  1 14  1  0
  3 15  1  0
  3 16  1  0
  4 17  1  6
  6 18  1  6
  7 19  1  0
  8 20  1  1
  9 21  1  0
 10 22  1  1
 11 23  1  0
M  END
$$$$

     RDKit          3D

 23 23  0  0  0  0  0  0  0  0999 V2000
    3.4569   -0.4230    0.6398 C   0  0  0  0  0  0  0  0  0  0  0  0
    2.1831   -0.5606    0.0808 O   0  0  0  0  0  0  0  0  0  0  0  0
    1.4414    0.6053    0.2079 C   0  0  0  0  0  0  0  0  0  0  0  0
    0.0899    0.3563   -0.4226 C   0  0  2  0  0  0  0  0  0  0  0  0
   -0.7240    1.4785   -0.3404 O   0  0  0  0  0  0  0  0  0  0  0  0
   -2.0263    1.0730   -0.4547 C   0  0  2  0  0  0  0  0  0  0  0  0
   -2.7782    1.7128    0.5390 O   0  0  0  0  0  0  0  0  0  0  0  0
   -2.0725   -0.4204   -0.1997 C   0  0  1  0  0  0  0  0  0  0  0  0
   -2.2448   -1.0488   -1.4262 O   0  0  0  0  0  0  0  0  0  0  0  0
   -0.7105   -0.6472    0.3847 C   0  0  1  0  0  0  0  0  0  0  0  0
   -0.2475   -1.9240    0.2899 O   0  0  0  0  0  0  0  0  0  0  0  0
    4.0015   -1.3800    0.5098 H   0  0  0  0  0  0  0  0  0  0  0  0
    3.3903   -0.1575    1.7075 H   0  0  0  0  0  0  0  0  0  0  0  0
    4.0160    0.3388    0.0619 H   0  0  0  0  0  0  0  0  0  0  0  0
    1.9425    1.4455   -0.2769 H   0  0  0  0  0  0  0  0  0  0  0  0
    1.3142    0.8018    1.2928 H   0  0  0  0  0  0  0  0  0  0  0  0
    0.2084    0.0290   -1.4759 H   0  0  0  0  0  0  0  0  0  0  0  0
   -2.4799    1.3364   -1.4272 H   0  0  0  0  0  0  0  0  0  0  0  0
   -2.6734    2.6857    0.5147 H   0  0  0  0  0  0  0  0  0  0  0  0
   -2.9020   -0.7053    0.4710 H   0  0  0  0  0  0  0  0  0  0  0  0
   -1.5354   -1.7137   -1.6191 H   0  0  0  0  0  0  0  0  0  0  0  0
   -0.7351   -0.2510    1.4301 H   0  0  0  0  0  0  0  0  0  0  0  0
   -0.9147   -2.6315    0.3464 H   0  0  0  0  0  0  0  0  0  0  0  0
  1  2  1  0
  2  3  1  0
  3  4  1  0
  4  5  1  0
  5  6  1  0
  6  7  1  0
  6  8  1  0
  8  9  1  0
  8 10  1  0
 10 11  1  0
 10  4  1  0
  1 12  1  0
  1 13  1  0
  1 14  1  0
  3 15  1  0
  3 16  1  0
  4 17  1  6
  6 18  1  6
  7 19  1  0
  8 20  1  1
  9 21  1  0
 10 22  1  1
 11 23  1  0
M  END
$$$$

     RDKit          3D

 23 23  0  0  0  0  0  0  0  0999 V2000
    2.9237    0.1047   -0.8570 C   0  0  0  0  0  0  0  0  0  0  0  0
    2.1673   -1.0143   -0.5237 O   0  0  0  0  0  0  0  0  0  0  0  0
    1.3297   -0.8313    0.5527 C   0  0  0  0  0  0  0  0  0  0  0  0
    0.2984    0.2407    0.3993 C   0  0  2  0  0  0  0  0  0  0  0  0
   -0.4478    0.2702    1.5762 O   0  0  0  0  0  0  0  0  0  0  0  0
   -1.6553   -0.3525    1.2757 C   0  0  2  0  0  0  0  0  0  0  0  0
   -1.4387   -1.6814    1.0165 O   0  0  0  0  0  0  0  0  0  0  0  0
   -1.9761    0.3194   -0.0592 C   0  0  1  0  0  0  0  0  0  0  0  0
   -2.0709    1.6835    0.1069 O   0  0  0  0  0  0  0  0  0  0  0  0
   -0.6330    0.0229   -0.7473 C   0  0  1  0  0  0  0  0  0  0  0  0
   -0.4391    0.8716   -1.8188 O   0  0  0  0  0  0  0  0  0  0  0  0
    3.5874   -0.1167   -1.7333 H   0  0  0  0  0  0  0  0  0  0  0  0
    2.2250    0.9285   -1.1605 H   0  0  0  0  0  0  0  0  0  0  0  0
    3.5078    0.4461    0.0158 H   0  0  0  0  0  0  0  0  0  0  0  0
    0.8771   -1.8229    0.7986 H   0  0  0  0  0  0  0  0  0  0  0  0
    1.9952   -0.5897    1.4324 H   0  0  0  0  0  0  0  0  0  0  0  0
    0.8081    1.2277    0.2394 H   0  0  0  0  0  0  0  0  0  0  0  0
   -2.4345   -0.1575    2.0270 H   0  0  0  0  0  0  0  0  0  0  0  0
   -1.9368   -2.2331    1.6678 H   0  0  0  0  0  0  0  0  0  0  0  0
   -2.8095   -0.1447   -0.5789 H   0  0  0  0  0  0  0  0  0  0  0  0
   -2.5731    2.0609   -0.6608 H   0  0  0  0  0  0  0  0  0  0  0  0
   -0.7038   -1.0332   -1.0782 H   0  0  0  0  0  0  0  0  0  0  0  0
   -0.6010    1.8010   -1.5982 H   0  0  0  0  0  0  0  0  0  0  0  0
  1  2  1  0
  2  3  1  0
  3  4  1  0
  4  5  1  0
  5  6  1  0
  6  7  1  0
  6  8  1  0
  8  9  1  0
  8 10  1  0
 10 11  1  0
 10  4  1  0
  1 12  1  0
  1 13  1  0
  1 14  1  0
  3 15  1  0
  3 16  1  0
  4 17  1  6
  6 18  1  1
  7 19  1  0
  8 20  1  6
  9 21  1  0
 10 22  1  6
 11 23  1  0
M  END
$$$$
