
     RDKit          3D

 21 21  0  0  0  0  0  0  0  0999 V2000
    1.7471   -1.5337    0.8376 O   0  0  0  0  0  0  0  0  0  0  0  0
    1.8000   -0.3485    0.4224 C   0  0  0  0  0  0  0  0  0  0  0  0
    2.6550    0.6549    1.1496 C   0  0  0  0  0  0  0  0  0  0  0  0
    2.5817    1.9001    0.5419 O   0  0  0  0  0  0  0  0  0  0  0  0
    1.0636   -0.0273   -0.6895 O   0  0  0  0  0  0  0  0  0  0  0  0
    0.2732   -0.9565   -1.3610 C   0  0  0  0  0  0  0  0  0  0  0  0
   -0.8088   -1.5646   -0.5164 C   0  0  0  0  0  0  0  0  0  0  0  0
   -1.7262   -0.5030   -0.0155 C   0  0  0  0  0  0  0  0  0  0  0  0
   -1.6158    0.8467   -0.2775 C   0  0  0  0  0  0  0  0  0  0  0  0
   -2.6437    1.4318    0.3663 N   0  0  0  0  0  0  0  0  0  0  0  0
   -3.3612    0.5169    0.9962 N   0  0  0  0  0  0  0  0  0  0  0  0
   -2.8091   -0.6542    0.7674 N   0  0  0  0  0  0  0  0  0  0  0  0
    2.3275    0.7801    2.2000 H   0  0  0  0  0  0  0  0  0  0  0  0
    3.7022    0.2939    1.0694 H   0  0  0  0  0  0  0  0  0  0  0  0
    1.7560    1.9490   -0.0035 H   0  0  0  0  0  0  0  0  0  0  0  0
   -0.2502   -0.4029   -2.1946 H   0  0  0  0  0  0  0  0  0  0  0  0
    0.8479   -1.7610   -1.8714 H   0  0  0  0  0  0  0  0  0  0  0  0
   -1.4225   -2.2164   -1.2057 H   0  0  0  0  0  0  0  0  0  0  0  0
   -0.4180   -2.2096    0.2766 H   0  0  0  0  0  0  0  0  0  0  0  0
   -0.8787    1.3573   -0.8659 H   0  0  0  0  0  0  0  0  0  0  0  0
   -2.8200    2.4471    0.3518 H   0  0  0  0  0  0  0  0  0  0  0  0
  1  2  2  0
  2  3  1  0
  3  4  1  0
  2  5  1  0
  5  6  1  0
  6  7  1  0
  7  8  1  0
  8  9  2  0
  9 10  1  0
 10 11  1  0
 11 12  2  0
 12  8  1  0
  3 13  1  0
  3 14  1  0
  4 15  1  0
  6 16  1  0
  6 17  1  0
  7 18  1  0
  7 19  1  0
  9 20  1  0
 10 21  1  0
M  END
$$$$

     RDKit          3D

 21 21  0  0  0  0  0  0  0  0999 V2000
   -3.1189    0.1307   -0.4634 O   0  0  0  0  0  0  0  0  0  0  0  0
   -2.0589    0.2249   -1.1337 C   0  0  0  0  0  0  0  0  0  0  0  0
   -2.1297    0.0494   -2.6287 C   0  0  0  0  0  0  0  0  0  0  0  0
   -0.8957    0.1809   -3.2105 O   0  0  0  0  0  0  0  0  0  0  0  0
   -0.8844    0.4829   -0.4784 O   0  0  0  0  0  0  0  0  0  0  0  0
   -0.8757    0.6377    0.9170 C   0  0  0  0  0  0  0  0  0  0  0  0
    0.4988    0.9152    1.4613 C   0  0  0  0  0  0  0  0  0  0  0  0
    1.4723   -0.1465    1.1790 C   0  0  0  0  0  0  0  0  0  0  0  0
    2.3074   -0.2841    0.0992 C   0  0  0  0  0  0  0  0  0  0  0  0
    3.0409   -1.4074    0.2369 N   0  0  0  0  0  0  0  0  0  0  0  0
    2.6703   -1.9432    1.3628 N   0  0  0  0  0  0  0  0  0  0  0  0
    1.7226   -1.2101    1.9630 N   0  0  0  0  0  0  0  0  0  0  0  0
   -2.5610   -0.9678   -2.8479 H   0  0  0  0  0  0  0  0  0  0  0  0
   -2.8816    0.7776   -3.0202 H   0  0  0  0  0  0  0  0  0  0  0  0
   -0.7665   -0.3647   -4.0190 H   0  0  0  0  0  0  0  0  0  0  0  0
   -1.3774   -0.2110    1.4414 H   0  0  0  0  0  0  0  0  0  0  0  0
   -1.4971    1.5374    1.1441 H   0  0  0  0  0  0  0  0  0  0  0  0
    0.3750    1.1029    2.5609 H   0  0  0  0  0  0  0  0  0  0  0  0
    0.8152    1.9065    1.0439 H   0  0  0  0  0  0  0  0  0  0  0  0
    2.3815    0.3839   -0.7337 H   0  0  0  0  0  0  0  0  0  0  0  0
    3.7625   -1.7950   -0.4050 H   0  0  0  0  0  0  0  0  0  0  0  0
  1  2  2  0
  2  3  1  0
  3  4  1  0
  2  5  1  0
  5  6  1  0
  6  7  1  0
  7  8  1  0
  8  9  2  0
  9 10  1  0
 10 11  1  0
 11 12  2  0
 12  8  1  0
  3 13  1  0
  3 14  1  0
  4 15  1  0
  6 16  1  0
  6 17  1  0
  7 18  1  0
  7 19  1  0
  9 20  1  0
 10 21  1  0
M  END
$$$$

     RDKit          3D

 21 21  0  0  0  0  0  0  0  0999 V2000
    2.4065   -0.3642    1.9944 O   0  0  0  0  0  0  0  0  0  0  0  0
    2.1260    0.0388    0.8449 C   0  0  0  0  0  0  0  0  0  0  0  0
    3.0754    0.9577    0.1666 C   0  0  0  0  0  0  0  0  0  0  0  0
    4.1642    1.2196    0.9737 O   0  0  0  0  0  0  0  0  0  0  0  0
    0.9500   -0.3665    0.2177 O   0  0  0  0  0  0  0  0  0  0  0  0
    0.0979   -1.2454    0.9348 C   0  0  0  0  0  0  0  0  0  0  0  0
   -1.1277   -1.5708    0.0872 C   0  0  0  0  0  0  0  0  0  0  0  0
   -1.8251   -0.3024   -0.2006 C   0  0  0  0  0  0  0  0  0  0  0  0
   -2.9919   -0.1195   -0.9416 C   0  0  0  0  0  0  0  0  0  0  0  0
   -3.3040    1.1882   -0.9715 N   0  0  0  0  0  0  0  0  0  0  0  0
   -2.3699    1.8110   -0.2753 N   0  0  0  0  0  0  0  0  0  0  0  0
   -1.4845    0.9431    0.1894 N   0  0  0  0  0  0  0  0  0  0  0  0
    2.5584    1.8791   -0.1712 H   0  0  0  0  0  0  0  0  0  0  0  0
    3.4599    0.4159   -0.7334 H   0  0  0  0  0  0  0  0  0  0  0  0
    4.0995    2.1338    1.3387 H   0  0  0  0  0  0  0  0  0  0  0  0
   -0.1922   -0.7887    1.8990 H   0  0  0  0  0  0  0  0  0  0  0  0
    0.6666   -2.1754    1.1860 H   0  0  0  0  0  0  0  0  0  0  0  0
   -1.8053   -2.2132    0.6860 H   0  0  0  0  0  0  0  0  0  0  0  0
   -0.8140   -2.0826   -0.8231 H   0  0  0  0  0  0  0  0  0  0  0  0
   -3.5524   -0.9285   -1.4175 H   0  0  0  0  0  0  0  0  0  0  0  0
   -4.1376    1.5700   -1.4672 H   0  0  0  0  0  0  0  0  0  0  0  0
  1  2  2  0
  2  3  1  0
  3  4  1  0
  2  5  1  0
  5  6  1  0
  6  7  1  0
  7  8  1  0
  8  9  2  0
  9 10  1  0
 10 11  1  0
 11 12  2  0
 12  8  1  0
  3 13  1  0
  3 14  1  0
  4 15  1  0
  6 16  1  0
  6 17  1  0
  7 18  1  0
  7 19  1  0
  9 20  1  0
 10 21  1  0
M  END
$$$$

     RDKit          3D

 21 21  0  0  0  0  0  0  0  0999 V2000
    1.8173    0.8676    1.3500 O   0  0  0  0  0  0  0  0  0  0  0  0
    2.2635    0.2601    0.3530 C   0  0  0  0  0  0  0  0  0  0  0  0
    3.6755   -0.1910    0.2372 C   0  0  0  0  0  0  0  0  0  0  0  0
    4.4063    0.1527    1.3691 O   0  0  0  0  0  0  0  0  0  0  0  0
    1.4056   -0.0036   -0.6874 O   0  0  0  0  0  0  0  0  0  0  0  0
    0.0546    0.3324   -0.7710 C   0  0  0  0  0  0  0  0  0  0  0  0
   -0.7209   -0.3145    0.3341 C   0  0  0  0  0  0  0  0  0  0  0  0
   -2.1755    0.0266    0.2668 C   0  0  0  0  0  0  0  0  0  0  0  0
   -3.1627   -0.6549   -0.4026 C   0  0  0  0  0  0  0  0  0  0  0  0
   -4.3053    0.0115   -0.1840 N   0  0  0  0  0  0  0  0  0  0  0  0
   -4.0521    1.0569    0.5820 N   0  0  0  0  0  0  0  0  0  0  0  0
   -2.7630    1.0733    0.8599 N   0  0  0  0  0  0  0  0  0  0  0  0
    4.1545    0.2051   -0.6819 H   0  0  0  0  0  0  0  0  0  0  0  0
    3.6459   -1.3100    0.1074 H   0  0  0  0  0  0  0  0  0  0  0  0
    5.3734    0.1199    1.1571 H   0  0  0  0  0  0  0  0  0  0  0  0
   -0.3004   -0.0007   -1.7822 H   0  0  0  0  0  0  0  0  0  0  0  0
   -0.0654    1.4400   -0.7685 H   0  0  0  0  0  0  0  0  0  0  0  0
   -0.5611   -1.4019    0.3550 H   0  0  0  0  0  0  0  0  0  0  0  0
   -0.3613    0.0785    1.3047 H   0  0  0  0  0  0  0  0  0  0  0  0
   -3.0595   -1.5487   -0.9915 H   0  0  0  0  0  0  0  0  0  0  0  0
   -5.2692   -0.1993   -0.5273 H   0  0  0  0  0  0  0  0  0  0  0  0
  1  2  2  0
  2  3  1  0
  3  4  1  0
  2  5  1  0
  5  6  1  0
  6  7  1  0
  7  8  1  0
  8  9  2  0
  9 10  1  0
 10 11  1  0
 11 12  2  0
 12  8  1  0
  3 13  1  0
  3 14  1  0
  4 15  1  0
  6 16  1  0
  6 17  1  0
  7 18  1  0
  7 19  1  0
  9 20  1  0
 10 21  1  0
M  END
$$$$

     RDKit          3D

 21 21  0  0  0  0  0  0  0  0999 V2000
    1.8086   -0.0437    1.8308 O   0  0  0  0  0  0  0  0  0  0  0  0
    2.3062   -0.2648    0.6959 C   0  0  0  0  0  0  0  0  0  0  0  0
    3.7911   -0.0918    0.4697 C   0  0  0  0  0  0  0  0  0  0  0  0
    4.0450   -0.4024   -0.8601 O   0  0  0  0  0  0  0  0  0  0  0  0
    1.4677   -0.6625   -0.3146 O   0  0  0  0  0  0  0  0  0  0  0  0
    0.0819   -0.8558   -0.2412 C   0  0  0  0  0  0  0  0  0  0  0  0
   -0.6075    0.4282    0.1083 C   0  0  0  0  0  0  0  0  0  0  0  0
   -2.0569    0.3131    0.2006 C   0  0  0  0  0  0  0  0  0  0  0  0
   -2.9675    0.4900   -0.8091 C   0  0  0  0  0  0  0  0  0  0  0  0
   -4.2201    0.2905   -0.3011 N   0  0  0  0  0  0  0  0  0  0  0  0
   -4.0462    0.0038    0.9751 N   0  0  0  0  0  0  0  0  0  0  0  0
   -2.7610    0.0115    1.2974 N   0  0  0  0  0  0  0  0  0  0  0  0
    3.9986    0.9712    0.7153 H   0  0  0  0  0  0  0  0  0  0  0  0
    4.3724   -0.7189    1.1713 H   0  0  0  0  0  0  0  0  0  0  0  0
    3.5213    0.2727   -1.3976 H   0  0  0  0  0  0  0  0  0  0  0  0
   -0.2782   -1.1512   -1.2497 H   0  0  0  0  0  0  0  0  0  0  0  0
   -0.1937   -1.6797    0.4487 H   0  0  0  0  0  0  0  0  0  0  0  0
   -0.2855    1.1606   -0.6980 H   0  0  0  0  0  0  0  0  0  0  0  0
   -0.1352    0.8343    1.0300 H   0  0  0  0  0  0  0  0  0  0  0  0
   -2.7194    0.7429   -1.8238 H   0  0  0  0  0  0  0  0  0  0  0  0
   -5.1215    0.3522   -0.8146 H   0  0  0  0  0  0  0  0  0  0  0  0
  1  2  2  0
  2  3  1  0
  3  4  1  0
  2  5  1  0
  5  6  1  0
  6  7  1  0
  7  8  1  0
  8  9  2  0
  9 10  1  0
 10 11  1  0
 11 12  2  0
 12  8  1  0
  3 13  1  0
  3 14  1  0
  4 15  1  0
  6 16  1  0
  6 17  1  0
  7 18  1  0
  7 19  1  0
  9 20  1  0
 10 21  1  0
M  END
$$$$

     RDKit          3D

 21 21  0  0  0  0  0  0  0  0999 V2000
    2.7183   -1.1238   -0.6014 O   0  0  0  0  0  0  0  0  0  0  0  0
    2.1492   -0.3432    0.2048 C   0  0  0  0  0  0  0  0  0  0  0  0
    2.7706   -0.1159    1.5367 C   0  0  0  0  0  0  0  0  0  0  0  0
    3.9278   -0.8114    1.7239 O   0  0  0  0  0  0  0  0  0  0  0  0
    0.9836    0.2541   -0.1965 O   0  0  0  0  0  0  0  0  0  0  0  0
    0.3623    0.0701   -1.4395 C   0  0  0  0  0  0  0  0  0  0  0  0
   -0.9043    0.9329   -1.4377 C   0  0  0  0  0  0  0  0  0  0  0  0
   -1.8208    0.5347   -0.3565 C   0  0  0  0  0  0  0  0  0  0  0  0
   -2.8304   -0.4022   -0.4066 C   0  0  0  0  0  0  0  0  0  0  0  0
   -3.3926   -0.4182    0.8252 N   0  0  0  0  0  0  0  0  0  0  0  0
   -2.7795    0.4534    1.6093 N   0  0  0  0  0  0  0  0  0  0  0  0
   -1.8348    1.0205    0.8850 N   0  0  0  0  0  0  0  0  0  0  0  0
    2.9816    0.9631    1.7122 H   0  0  0  0  0  0  0  0  0  0  0  0
    1.9718   -0.3745    2.2881 H   0  0  0  0  0  0  0  0  0  0  0  0
    3.9332   -1.7390    1.4265 H   0  0  0  0  0  0  0  0  0  0  0  0
    1.0322    0.3467   -2.2600 H   0  0  0  0  0  0  0  0  0  0  0  0
    0.0316   -0.9708   -1.6155 H   0  0  0  0  0  0  0  0  0  0  0  0
   -0.6567    2.0086   -1.3027 H   0  0  0  0  0  0  0  0  0  0  0  0
   -1.3705    0.8282   -2.4209 H   0  0  0  0  0  0  0  0  0  0  0  0
   -3.0881   -0.9820   -1.2679 H   0  0  0  0  0  0  0  0  0  0  0  0
   -4.1847   -1.0299    1.0932 H   0  0  0  0  0  0  0  0  0  0  0  0
  1  2  2  0
  2  3  1  0
  3  4  1  0
  2  5  1  0
  5  6  1  0
  6  7  1  0
  7  8  1  0
  8  9  2  0
  9 10  1  0
 10 11  1  0
 11 12  2  0
 12  8  1  0
  3 13  1  0
  3 14  1  0
  4 15  1  0
  6 16  1  0
  6 17  1  0
  7 18  1  0
  7 19  1  0
  9 20  1  0
 10 21  1  0
M  END
$$$$

     RDKit          3D

 21 21  0  0  0  0  0  0  0  0999 V2000
    1.7039    1.3139   -0.7244 O   0  0  0  0  0  0  0  0  0  0  0  0
    2.2062    0.2096   -0.3931 C   0  0  0  0  0  0  0  0  0  0  0  0
    3.6748    0.1300   -0.1556 C   0  0  0  0  0  0  0  0  0  0  0  0
    4.0239   -1.1747    0.1994 O   0  0  0  0  0  0  0  0  0  0  0  0
    1.3675   -0.8708   -0.2672 O   0  0  0  0  0  0  0  0  0  0  0  0
   -0.0219   -0.8871   -0.4657 C   0  0  0  0  0  0  0  0  0  0  0  0
   -0.6673    0.0368    0.5348 C   0  0  0  0  0  0  0  0  0  0  0  0
   -2.1552    0.0446    0.3610 C   0  0  0  0  0  0  0  0  0  0  0  0
   -2.8836    0.8820   -0.4471 C   0  0  0  0  0  0  0  0  0  0  0  0
   -4.2027    0.5601   -0.3159 N   0  0  0  0  0  0  0  0  0  0  0  0
   -4.2585   -0.4360    0.5420 N   0  0  0  0  0  0  0  0  0  0  0  0
   -3.0390   -0.7654    0.9645 N   0  0  0  0  0  0  0  0  0  0  0  0
    4.1654    0.4296   -1.1103 H   0  0  0  0  0  0  0  0  0  0  0  0
    4.0153    0.8367    0.6136 H   0  0  0  0  0  0  0  0  0  0  0  0
    4.9923   -1.1942    0.4122 H   0  0  0  0  0  0  0  0  0  0  0  0
   -0.4195   -1.9310   -0.2993 H   0  0  0  0  0  0  0  0  0  0  0  0
   -0.2989   -0.5819   -1.5045 H   0  0  0  0  0  0  0  0  0  0  0  0
   -0.2359    1.0317    0.4277 H   0  0  0  0  0  0  0  0  0  0  0  0
   -0.4554   -0.3060    1.5666 H   0  0  0  0  0  0  0  0  0  0  0  0
   -2.5076    1.6677   -1.0865 H   0  0  0  0  0  0  0  0  0  0  0  0
   -5.0038    1.0045   -0.7913 H   0  0  0  0  0  0  0  0  0  0  0  0
  1  2  2  0
  2  3  1  0
  3  4  1  0
  2  5  1  0
  5  6  1  0
  6  7  1  0
  7  8  1  0
  8  9  2  0
  9 10  1  0
 10 11  1  0
 11 12  2  0
 12  8  1  0
  3 13  1  0
  3 14  1  0
  4 15  1  0
  6 16  1  0
  6 17  1  0
  7 18  1  0
  7 19  1  0
  9 20  1  0
 10 21  1  0
M  END
$$$$

     RDKit          3D

 21 21  0  0  0  0  0  0  0  0999 V2000
    2.1867   -1.3371    1.1859 O   0  0  0  0  0  0  0  0  0  0  0  0
    1.9586   -0.6796    0.1431 C   0  0  0  0  0  0  0  0  0  0  0  0
    3.0348    0.1262   -0.4975 C   0  0  0  0  0  0  0  0  0  0  0  0
    4.2106   -0.0138    0.2545 O   0  0  0  0  0  0  0  0  0  0  0  0
    0.7006   -0.7187   -0.3927 O   0  0  0  0  0  0  0  0  0  0  0  0
   -0.3772   -1.4760    0.1784 C   0  0  0  0  0  0  0  0  0  0  0  0
   -1.5709   -1.2157   -0.7531 C   0  0  0  0  0  0  0  0  0  0  0  0
   -1.7828    0.2723   -0.7024 C   0  0  0  0  0  0  0  0  0  0  0  0
   -2.6070    0.8972    0.2044 C   0  0  0  0  0  0  0  0  0  0  0  0
   -2.5399    2.2194   -0.0581 N   0  0  0  0  0  0  0  0  0  0  0  0
   -1.7194    2.3715   -1.0673 N   0  0  0  0  0  0  0  0  0  0  0  0
   -1.2457    1.2078   -1.4778 N   0  0  0  0  0  0  0  0  0  0  0  0
    2.7866    1.2100   -0.5310 H   0  0  0  0  0  0  0  0  0  0  0  0
    3.1979   -0.2072   -1.5549 H   0  0  0  0  0  0  0  0  0  0  0  0
    4.5444    0.8664    0.5621 H   0  0  0  0  0  0  0  0  0  0  0  0
   -0.1466   -2.5476    0.2285 H   0  0  0  0  0  0  0  0  0  0  0  0
   -0.6837   -1.0439    1.1600 H   0  0  0  0  0  0  0  0  0  0  0  0
   -1.2473   -1.5272   -1.7688 H   0  0  0  0  0  0  0  0  0  0  0  0
   -2.4474   -1.7627   -0.3842 H   0  0  0  0  0  0  0  0  0  0  0  0
   -3.1971    0.4020    0.9832 H   0  0  0  0  0  0  0  0  0  0  0  0
   -3.0551    2.9566    0.4611 H   0  0  0  0  0  0  0  0  0  0  0  0
  1  2  2  0
  2  3  1  0
  3  4  1  0
  2  5  1  0
  5  6  1  0
  6  7  1  0
  7  8  1  0
  8  9  2  0
  9 10  1  0
 10 11  1  0
 11 12  2  0
 12  8  1  0
  3 13  1  0
  3 14  1  0
  4 15  1  0
  6 16  1  0
  6 17  1  0
  7 18  1  0
  7 19  1  0
  9 20  1  0
 10 21  1  0
M  END
$$$$
