
     RDKit          3D

 26 26  0  0  0  0  0  0  0  0999 V2000
    1.2269    0.6691   -0.8821 O   0  0  0  0  0  0  0  0  0  0  0  0
    0.8295   -0.1819   -0.0573 C   0  0  0  0  0  0  0  0  0  0  0  0
    1.7531   -1.1317    0.4685 N   0  0  0  0  0  0  0  0  0  0  0  0
    3.1365   -1.1773    0.1081 C   0  0  0  0  0  0  0  0  0  0  0  0
    3.8644    0.1098    0.4469 C   0  0  0  0  0  0  0  0  0  0  0  0
    5.2076    0.0155    0.0769 O   0  0  0  0  0  0  0  0  0  0  0  0
   -0.5365   -0.1488    0.3097 N   0  0  0  0  0  0  0  0  0  0  0  0
   -1.4151    0.8443   -0.2652 C   0  0  2  0  0  0  0  0  0  0  0  0
   -2.3193    1.5198    0.7853 C   0  0  0  0  0  0  0  0  0  0  0  0
   -2.8772    0.6505   -0.2915 C   0  0  2  0  0  0  0  0  0  0  0  0
   -3.5170   -0.6633    0.0674 C   0  0  0  0  0  0  0  0  0  0  0  0
   -4.9093   -0.5285   -0.0539 O   0  0  0  0  0  0  0  0  0  0  0  0
    1.3681   -1.8146    1.1487 H   0  0  0  0  0  0  0  0  0  0  0  0
    3.6460   -1.9751    0.6852 H   0  0  0  0  0  0  0  0  0  0  0  0
    3.2292   -1.4439   -0.9487 H   0  0  0  0  0  0  0  0  0  0  0  0
    3.8579    0.3017    1.5369 H   0  0  0  0  0  0  0  0  0  0  0  0
    3.4132    0.9459   -0.1210 H   0  0  0  0  0  0  0  0  0  0  0  0
    5.7204    0.7113    0.5861 H   0  0  0  0  0  0  0  0  0  0  0  0
   -0.8913   -0.8399    0.9889 H   0  0  0  0  0  0  0  0  0  0  0  0
   -0.9763    1.5584   -0.9878 H   0  0  0  0  0  0  0  0  0  0  0  0
   -2.4184    2.6223    0.7375 H   0  0  0  0  0  0  0  0  0  0  0  0
   -2.3510    1.0997    1.7927 H   0  0  0  0  0  0  0  0  0  0  0  0
   -3.4369    1.2131   -1.0836 H   0  0  0  0  0  0  0  0  0  0  0  0
   -3.2068   -1.0397    1.0467 H   0  0  0  0  0  0  0  0  0  0  0  0
   -3.2161   -1.4299   -0.6934 H   0  0  0  0  0  0  0  0  0  0  0  0
   -5.1819    0.1129    0.6647 H   0  0  0  0  0  0  0  0  0  0  0  0
  1  2  2  0
  2  3  1  0
  3  4  1  0
  4  5  1  0
  5  6  1  0
  2  7  1  0
  7  8  1  0
  8  9  1  0
  9 10  1  0
 10 11  1  0
 11 12  1  0
 10  8  1  0
  3 13  1  0
  4 14  1  0
  4 15  1  0
  5 16  1  0
  5 17  1  0
  6 18  1  0
  7 19  1  0
  8 20  1  6
  9 21  1  0
  9 22  1  0
 10 23  1  6
 11 24  1  0
 11 25  1  0
 12 26  1  0
M  END
$$$$

     RDKit          3D

 26 26  0  0  0  0  0  0  0  0999 V2000
    1.0310   -1.0092   -1.7656 O   0  0  0  0  0  0  0  0  0  0  0  0
    0.8192   -0.3227   -0.7228 C   0  0  0  0  0  0  0  0  0  0  0  0
    1.9413    0.0241    0.0680 N   0  0  0  0  0  0  0  0  0  0  0  0
    3.2773   -0.4162   -0.3429 C   0  0  0  0  0  0  0  0  0  0  0  0
    4.3323    0.0440    0.6133 C   0  0  0  0  0  0  0  0  0  0  0  0
    4.3943    1.4277    0.7302 O   0  0  0  0  0  0  0  0  0  0  0  0
   -0.5136    0.0525   -0.4144 N   0  0  0  0  0  0  0  0  0  0  0  0
   -1.6484   -0.3193   -1.2476 C   0  0  2  0  0  0  0  0  0  0  0  0
   -2.6226    0.8401   -1.4694 C   0  0  0  0  0  0  0  0  0  0  0  0
   -3.0125   -0.3794   -0.7064 C   0  0  2  0  0  0  0  0  0  0  0  0
   -3.3020   -0.3267    0.7568 C   0  0  0  0  0  0  0  0  0  0  0  0
   -4.6898   -0.4046    0.9607 O   0  0  0  0  0  0  0  0  0  0  0  0
    1.7745    0.5835    0.9190 H   0  0  0  0  0  0  0  0  0  0  0  0
    3.4335   -0.0700   -1.3722 H   0  0  0  0  0  0  0  0  0  0  0  0
    3.2517   -1.5248   -0.3046 H   0  0  0  0  0  0  0  0  0  0  0  0
    4.1991   -0.4729    1.5790 H   0  0  0  0  0  0  0  0  0  0  0  0
    5.3112   -0.2825    0.2053 H   0  0  0  0  0  0  0  0  0  0  0  0
    4.0541    1.7769    1.5710 H   0  0  0  0  0  0  0  0  0  0  0  0
   -0.6411    0.6226    0.4618 H   0  0  0  0  0  0  0  0  0  0  0  0
   -1.3489   -0.9220   -2.1388 H   0  0  0  0  0  0  0  0  0  0  0  0
   -2.4915    1.7581   -0.8954 H   0  0  0  0  0  0  0  0  0  0  0  0
   -2.9182    0.9714   -2.5321 H   0  0  0  0  0  0  0  0  0  0  0  0
   -3.7182   -1.0530   -1.2743 H   0  0  0  0  0  0  0  0  0  0  0  0
   -2.7883   -1.1701    1.3012 H   0  0  0  0  0  0  0  0  0  0  0  0
   -2.9457    0.6023    1.2296 H   0  0  0  0  0  0  0  0  0  0  0  0
   -5.1789   -0.0296    0.1735 H   0  0  0  0  0  0  0  0  0  0  0  0
  1  2  2  0
  2  3  1  0
  3  4  1  0
  4  5  1  0
  5  6  1  0
  2  7  1  0
  7  8  1  0
  8  9  1  0
  9 10  1  0
 10 11  1  0
 11 12  1  0
 10  8  1  0
  3 13  1  0
  4 14  1  0
  4 15  1  0
  5 16  1  0
  5 17  1  0
  6 18  1  0
  7 19  1  0
  8 20  1  6
  9 21  1  0
  9 22  1  0
 10 23  1  6
 11 24  1  0
 11 25  1  0
 12 26  1  0
M  END
$$$$

     RDKit          3D

 26 26  0  0  0  0  0  0  0  0999 V2000
    0.7943   -1.8841   -0.7261 O   0  0  0  0  0  0  0  0  0  0  0  0
    0.6675   -0.6720   -0.3517 C   0  0  0  0  0  0  0  0  0  0  0  0
    1.8395    0.0697   -0.0362 N   0  0  0  0  0  0  0  0  0  0  0  0
    3.1213   -0.5904   -0.1562 C   0  0  0  0  0  0  0  0  0  0  0  0
    4.2628    0.3285    0.2131 C   0  0  0  0  0  0  0  0  0  0  0  0
    4.3212    1.4487   -0.5857 O   0  0  0  0  0  0  0  0  0  0  0  0
   -0.6347   -0.1108   -0.2644 N   0  0  0  0  0  0  0  0  0  0  0  0
   -1.7685   -0.9129   -0.5964 C   0  0  2  0  0  0  0  0  0  0  0  0
   -2.8200   -0.1561   -1.4111 C   0  0  0  0  0  0  0  0  0  0  0  0
   -3.1198   -0.6310   -0.0542 C   0  0  2  0  0  0  0  0  0  0  0  0
   -3.2746    0.3264    1.1069 C   0  0  0  0  0  0  0  0  0  0  0  0
   -2.8086    1.5965    0.8258 O   0  0  0  0  0  0  0  0  0  0  0  0
    1.7777    1.0621    0.2732 H   0  0  0  0  0  0  0  0  0  0  0  0
    3.2575   -0.9892   -1.1672 H   0  0  0  0  0  0  0  0  0  0  0  0
    3.1008   -1.4521    0.5405 H   0  0  0  0  0  0  0  0  0  0  0  0
    5.1920   -0.2708    0.2239 H   0  0  0  0  0  0  0  0  0  0  0  0
    4.0325    0.6935    1.2564 H   0  0  0  0  0  0  0  0  0  0  0  0
    4.2165    2.2939   -0.1005 H   0  0  0  0  0  0  0  0  0  0  0  0
   -0.6889    0.8877    0.0475 H   0  0  0  0  0  0  0  0  0  0  0  0
   -1.5415   -1.9513   -0.9091 H   0  0  0  0  0  0  0  0  0  0  0  0
   -2.6478    0.8977   -1.6646 H   0  0  0  0  0  0  0  0  0  0  0  0
   -3.2311   -0.7358   -2.2877 H   0  0  0  0  0  0  0  0  0  0  0  0
   -3.8018   -1.5039    0.0162 H   0  0  0  0  0  0  0  0  0  0  0  0
   -4.3344    0.4027    1.3960 H   0  0  0  0  0  0  0  0  0  0  0  0
   -2.7273   -0.0962    1.9745 H   0  0  0  0  0  0  0  0  0  0  0  0
   -3.1843    1.9493   -0.0008 H   0  0  0  0  0  0  0  0  0  0  0  0
  1  2  2  0
  2  3  1  0
  3  4  1  0
  4  5  1  0
  5  6  1  0
  2  7  1  0
  7  8  1  0
  8  9  1  0
  9 10  1  0
 10 11  1  0
 11 12  1  0
 10  8  1  0
  3 13  1  0
  4 14  1  0
  4 15  1  0
  5 16  1  0
  5 17  1  0
  6 18  1  0
  7 19  1  0
  8 20  1  6
  9 21  1  0
  9 22  1  0
 10 23  1  6
 11 24  1  0
 11 25  1  0
 12 26  1  0
M  END
$$$$

     RDKit          3D

 26 26  0  0  0  0  0  0  0  0999 V2000
    1.1927   -1.2723   -1.2899 O   0  0  0  0  0  0  0  0  0  0  0  0
    0.8585   -0.1332   -0.8987 C   0  0  0  0  0  0  0  0  0  0  0  0
    1.8300    0.8762   -0.6602 N   0  0  0  0  0  0  0  0  0  0  0  0
    3.2366    0.6880   -0.8356 C   0  0  0  0  0  0  0  0  0  0  0  0
    3.7054   -0.4124    0.0891 C   0  0  0  0  0  0  0  0  0  0  0  0
    3.4383   -0.0548    1.4182 O   0  0  0  0  0  0  0  0  0  0  0  0
   -0.5275    0.1355   -0.6948 N   0  0  0  0  0  0  0  0  0  0  0  0
   -1.5240   -0.8872   -0.9354 C   0  0  2  0  0  0  0  0  0  0  0  0
   -2.7887   -0.4076   -1.6431 C   0  0  0  0  0  0  0  0  0  0  0  0
   -2.8203   -0.9094   -0.2417 C   0  0  2  0  0  0  0  0  0  0  0  0
   -3.0647    0.1144    0.8187 C   0  0  0  0  0  0  0  0  0  0  0  0
   -2.9870    1.4123    0.3265 O   0  0  0  0  0  0  0  0  0  0  0  0
    1.4702    1.8210   -0.3325 H   0  0  0  0  0  0  0  0  0  0  0  0
    3.4463    0.4376   -1.9023 H   0  0  0  0  0  0  0  0  0  0  0  0
    3.7631    1.6388   -0.5672 H   0  0  0  0  0  0  0  0  0  0  0  0
    4.7982   -0.5691   -0.0643 H   0  0  0  0  0  0  0  0  0  0  0  0
    3.2087   -1.3518   -0.1775 H   0  0  0  0  0  0  0  0  0  0  0  0
    4.2509    0.3501    1.8524 H   0  0  0  0  0  0  0  0  0  0  0  0
   -0.7876    1.0718   -0.3746 H   0  0  0  0  0  0  0  0  0  0  0  0
   -1.1061   -1.8753   -1.2869 H   0  0  0  0  0  0  0  0  0  0  0  0
   -3.1371   -1.0312   -2.4916 H   0  0  0  0  0  0  0  0  0  0  0  0
   -2.9026    0.6663   -1.8114 H   0  0  0  0  0  0  0  0  0  0  0  0
   -3.2972   -1.9107   -0.0802 H   0  0  0  0  0  0  0  0  0  0  0  0
   -4.1037   -0.0136    1.2270 H   0  0  0  0  0  0  0  0  0  0  0  0
   -2.3282    0.0359    1.6676 H   0  0  0  0  0  0  0  0  0  0  0  0
   -3.8243    1.5807   -0.1763 H   0  0  0  0  0  0  0  0  0  0  0  0
  1  2  2  0
  2  3  1  0
  3  4  1  0
  4  5  1  0
  5  6  1  0
  2  7  1  0
  7  8  1  0
  8  9  1  0
  9 10  1  0
 10 11  1  0
 11 12  1  0
 10  8  1  0
  3 13  1  0
  4 14  1  0
  4 15  1  0
  5 16  1  0
  5 17  1  0
  6 18  1  0
  7 19  1  0
  8 20  1  6
  9 21  1  0
  9 22  1  0
 10 23  1  6
 11 24  1  0
 11 25  1  0
 12 26  1  0
M  END
$$$$

     RDKit          3D

 26 26  0  0  0  0  0  0  0  0999 V2000
   -1.0322   -0.0951   -1.7274 O   0  0  0  0  0  0  0  0  0  0  0  0
   -0.7130   -0.2718   -0.5219 C   0  0  0  0  0  0  0  0  0  0  0  0
   -1.6754   -0.3666    0.5207 N   0  0  0  0  0  0  0  0  0  0  0  0
   -3.0966   -0.2519    0.1606 C   0  0  0  0  0  0  0  0  0  0  0  0
   -3.9760   -0.3720    1.3624 C   0  0  0  0  0  0  0  0  0  0  0  0
   -5.2870   -0.2581    0.9703 O   0  0  0  0  0  0  0  0  0  0  0  0
    0.6975   -0.3736   -0.2546 N   0  0  0  0  0  0  0  0  0  0  0  0
    1.6775   -0.2773   -1.3137 C   0  0  2  0  0  0  0  0  0  0  0  0
    2.9576   -1.0046   -1.2675 C   0  0  0  0  0  0  0  0  0  0  0  0
    2.9765    0.4381   -0.9760 C   0  0  2  0  0  0  0  0  0  0  0  0
    3.1530    0.9952    0.3948 C   0  0  0  0  0  0  0  0  0  0  0  0
    3.0921    0.1016    1.4180 O   0  0  0  0  0  0  0  0  0  0  0  0
   -1.3924   -0.5120    1.5049 H   0  0  0  0  0  0  0  0  0  0  0  0
   -3.2441    0.7554   -0.2726 H   0  0  0  0  0  0  0  0  0  0  0  0
   -3.3864   -1.0515   -0.5552 H   0  0  0  0  0  0  0  0  0  0  0  0
   -3.7711    0.4493    2.0939 H   0  0  0  0  0  0  0  0  0  0  0  0
   -3.8200   -1.3187    1.9232 H   0  0  0  0  0  0  0  0  0  0  0  0
   -5.4210    0.1988    0.1027 H   0  0  0  0  0  0  0  0  0  0  0  0
    0.9468   -0.5199    0.7464 H   0  0  0  0  0  0  0  0  0  0  0  0
    1.2521   -0.1240   -2.3329 H   0  0  0  0  0  0  0  0  0  0  0  0
    3.0505   -1.7723   -0.4710 H   0  0  0  0  0  0  0  0  0  0  0  0
    3.4203   -1.3427   -2.2238 H   0  0  0  0  0  0  0  0  0  0  0  0
    3.3454    1.1047   -1.7900 H   0  0  0  0  0  0  0  0  0  0  0  0
    2.3426    1.7641    0.5619 H   0  0  0  0  0  0  0  0  0  0  0  0
    4.1002    1.5676    0.4689 H   0  0  0  0  0  0  0  0  0  0  0  0
    3.8029   -0.5480    1.4777 H   0  0  0  0  0  0  0  0  0  0  0  0
  1  2  2  0
  2  3  1  0
  3  4  1  0
  4  5  1  0
  5  6  1  0
  2  7  1  0
  7  8  1  0
  8  9  1  0
  9 10  1  0
 10 11  1  0
 11 12  1  0
 10  8  1  0
  3 13  1  0
  4 14  1  0
  4 15  1  0
  5 16  1  0
  5 17  1  0
  6 18  1  0
  7 19  1  0
  8 20  1  6
  9 21  1  0
  9 22  1  0
 10 23  1  6
 11 24  1  0
 11 25  1  0
 12 26  1  0
M  END
$$$$

     RDKit          3D

 26 26  0  0  0  0  0  0  0  0999 V2000
    1.1039   -1.7269   -0.0068 O   0  0  0  0  0  0  0  0  0  0  0  0
    0.7632   -0.5709    0.3900 C   0  0  0  0  0  0  0  0  0  0  0  0
    1.6850    0.2186    1.1282 N   0  0  0  0  0  0  0  0  0  0  0  0
    3.0167   -0.2298    1.4584 C   0  0  0  0  0  0  0  0  0  0  0  0
    3.8051   -0.5186    0.2048 C   0  0  0  0  0  0  0  0  0  0  0  0
    3.9147    0.6196   -0.5872 O   0  0  0  0  0  0  0  0  0  0  0  0
   -0.5383   -0.1056    0.0784 N   0  0  0  0  0  0  0  0  0  0  0  0
   -1.4649   -0.8843   -0.6568 C   0  0  2  0  0  0  0  0  0  0  0  0
   -2.1382   -0.1155   -1.8130 C   0  0  0  0  0  0  0  0  0  0  0  0
   -2.9152   -0.6762   -0.6679 C   0  0  2  0  0  0  0  0  0  0  0  0
   -3.6152    0.3179    0.2018 C   0  0  0  0  0  0  0  0  0  0  0  0
   -3.1884    1.6240   -0.0185 O   0  0  0  0  0  0  0  0  0  0  0  0
    1.3383    1.1703    1.4292 H   0  0  0  0  0  0  0  0  0  0  0  0
    3.0062   -1.1259    2.1063 H   0  0  0  0  0  0  0  0  0  0  0  0
    3.5464    0.5767    1.9992 H   0  0  0  0  0  0  0  0  0  0  0  0
    3.3781   -1.3636   -0.3540 H   0  0  0  0  0  0  0  0  0  0  0  0
    4.8549   -0.8202    0.4777 H   0  0  0  0  0  0  0  0  0  0  0  0
    4.7006    0.5203   -1.2060 H   0  0  0  0  0  0  0  0  0  0  0  0
   -0.8033    0.8407    0.4089 H   0  0  0  0  0  0  0  0  0  0  0  0
   -1.0864   -1.8957   -0.9713 H   0  0  0  0  0  0  0  0  0  0  0  0
   -1.9684    0.9726   -1.8770 H   0  0  0  0  0  0  0  0  0  0  0  0
   -2.1688   -0.6091   -2.8031 H   0  0  0  0  0  0  0  0  0  0  0  0
   -3.5448   -1.5864   -0.8897 H   0  0  0  0  0  0  0  0  0  0  0  0
   -4.6960    0.2933   -0.0503 H   0  0  0  0  0  0  0  0  0  0  0  0
   -3.5524    0.0380    1.2797 H   0  0  0  0  0  0  0  0  0  0  0  0
   -3.4330    2.2009    0.7389 H   0  0  0  0  0  0  0  0  0  0  0  0
  1  2  2  0
  2  3  1  0
  3  4  1  0
  4  5  1  0
  5  6  1  0
  2  7  1  0
  7  8  1  0
  8  9  1  0
  9 10  1  0
 10 11  1  0
 11 12  1  0
 10  8  1  0
  3 13  1  0
  4 14  1  0
  4 15  1  0
  5 16  1  0
  5 17  1  0
  6 18  1  0
  7 19  1  0
  8 20  1  6
  9 21  1  0
  9 22  1  0
 10 23  1  6
 11 24  1  0
 11 25  1  0
 12 26  1  0
M  END
$$$$

     RDKit          3D

 26 26  0  0  0  0  0  0  0  0999 V2000
   -0.8426   -1.3064   -1.0593 O   0  0  0  0  0  0  0  0  0  0  0  0
   -0.7201   -0.3043   -0.2959 C   0  0  0  0  0  0  0  0  0  0  0  0
   -1.8771    0.4124    0.0504 N   0  0  0  0  0  0  0  0  0  0  0  0
   -3.2113    0.0385   -0.4408 C   0  0  0  0  0  0  0  0  0  0  0  0
   -4.2609    0.9841    0.0925 C   0  0  0  0  0  0  0  0  0  0  0  0
   -5.4878    0.5460   -0.4293 O   0  0  0  0  0  0  0  0  0  0  0  0
    0.5871    0.0152    0.1507 N   0  0  0  0  0  0  0  0  0  0  0  0
    1.7675   -0.7409   -0.2210 C   0  0  2  0  0  0  0  0  0  0  0  0
    2.7009   -0.9948    0.9593 C   0  0  0  0  0  0  0  0  0  0  0  0
    3.1038   -0.1404   -0.2239 C   0  0  2  0  0  0  0  0  0  0  0  0
    3.3093    1.3408   -0.0002 C   0  0  0  0  0  0  0  0  0  0  0  0
    4.6821    1.5895   -0.0626 O   0  0  0  0  0  0  0  0  0  0  0  0
   -1.7899    1.2421    0.6800 H   0  0  0  0  0  0  0  0  0  0  0  0
   -3.4150   -0.9668   -0.0617 H   0  0  0  0  0  0  0  0  0  0  0  0
   -3.1954   -0.0015   -1.5409 H   0  0  0  0  0  0  0  0  0  0  0  0
   -4.0887    2.0302   -0.1519 H   0  0  0  0  0  0  0  0  0  0  0  0
   -4.3516    0.8855    1.1926 H   0  0  0  0  0  0  0  0  0  0  0  0
   -5.3829   -0.0013   -1.2364 H   0  0  0  0  0  0  0  0  0  0  0  0
    0.6936    0.8377    0.7782 H   0  0  0  0  0  0  0  0  0  0  0  0
    1.5399   -1.6065   -0.8996 H   0  0  0  0  0  0  0  0  0  0  0  0
    2.5293   -0.4490    1.8977 H   0  0  0  0  0  0  0  0  0  0  0  0
    3.0438   -2.0254    1.0475 H   0  0  0  0  0  0  0  0  0  0  0  0
    3.8585   -0.6151   -0.8945 H   0  0  0  0  0  0  0  0  0  0  0  0
    2.8644    1.6987    0.9508 H   0  0  0  0  0  0  0  0  0  0  0  0
    2.8046    1.8858   -0.8142 H   0  0  0  0  0  0  0  0  0  0  0  0
    5.1385    0.9367    0.5324 H   0  0  0  0  0  0  0  0  0  0  0  0
  1  2  2  0
  2  3  1  0
  3  4  1  0
  4  5  1  0
  5  6  1  0
  2  7  1  0
  7  8  1  0
  8  9  1  0
  9 10  1  0
 10 11  1  0
 11 12  1  0
 10  8  1  0
  3 13  1  0
  4 14  1  0
  4 15  1  0
  5 16  1  0
  5 17  1  0
  6 18  1  0
  7 19  1  0
  8 20  1  6
  9 21  1  0
  9 22  1  0
 10 23  1  6
 11 24  1  0
 11 25  1  0
 12 26  1  0
M  END
$$$$

     RDKit          3D

 26 26  0  0  0  0  0  0  0  0999 V2000
    0.9714    1.5214    0.1264 O   0  0  0  0  0  0  0  0  0  0  0  0
    0.8714    0.3081    0.4430 C   0  0  0  0  0  0  0  0  0  0  0  0
    2.0463   -0.4517    0.5895 N   0  0  0  0  0  0  0  0  0  0  0  0
    3.3615    0.1216    0.3865 C   0  0  0  0  0  0  0  0  0  0  0  0
    3.5711    0.6660   -0.9873 C   0  0  0  0  0  0  0  0  0  0  0  0
    4.8876    1.1810   -1.0167 O   0  0  0  0  0  0  0  0  0  0  0  0
   -0.4336   -0.2010    0.6285 N   0  0  0  0  0  0  0  0  0  0  0  0
   -1.6280    0.6034    0.4713 C   0  0  2  0  0  0  0  0  0  0  0  0
   -2.7760    0.4483    1.3945 C   0  0  0  0  0  0  0  0  0  0  0  0
   -2.8578    0.0368   -0.0855 C   0  0  2  0  0  0  0  0  0  0  0  0
   -3.0350   -1.4280   -0.3320 C   0  0  0  0  0  0  0  0  0  0  0  0
   -4.2908   -1.7240   -0.8664 O   0  0  0  0  0  0  0  0  0  0  0  0
    1.9550   -1.4635    0.8541 H   0  0  0  0  0  0  0  0  0  0  0  0
    4.1431   -0.6318    0.6130 H   0  0  0  0  0  0  0  0  0  0  0  0
    3.5350    0.9549    1.1143 H   0  0  0  0  0  0  0  0  0  0  0  0
    3.4997   -0.0945   -1.7780 H   0  0  0  0  0  0  0  0  0  0  0  0
    2.9024    1.5286   -1.1848 H   0  0  0  0  0  0  0  0  0  0  0  0
    5.1092    1.5610   -1.8997 H   0  0  0  0  0  0  0  0  0  0  0  0
   -0.5739   -1.2003    0.8917 H   0  0  0  0  0  0  0  0  0  0  0  0
   -1.3937    1.6697    0.1870 H   0  0  0  0  0  0  0  0  0  0  0  0
   -3.3652    1.3359    1.6637 H   0  0  0  0  0  0  0  0  0  0  0  0
   -2.8204   -0.3616    2.1452 H   0  0  0  0  0  0  0  0  0  0  0  0
   -3.4738    0.6805   -0.7479 H   0  0  0  0  0  0  0  0  0  0  0  0
   -2.2563   -1.8548   -0.9973 H   0  0  0  0  0  0  0  0  0  0  0  0
   -2.9632   -1.9810    0.6194 H   0  0  0  0  0  0  0  0  0  0  0  0
   -4.9864   -1.2250   -0.3963 H   0  0  0  0  0  0  0  0  0  0  0  0
  1  2  2  0
  2  3  1  0
  3  4  1  0
  4  5  1  0
  5  6  1  0
  2  7  1  0
  7  8  1  0
  8  9  1  0
  9 10  1  0
 10 11  1  0
 11 12  1  0
 10  8  1  0
  3 13  1  0
  4 14  1  0
  4 15  1  0
  5 16  1  0
  5 17  1  0
  6 18  1  0
  7 19  1  0
  8 20  1  6
  9 21  1  0
  9 22  1  0
 10 23  1  6
 11 24  1  0
 11 25  1  0
 12 26  1  0
M  END
$$$$
