
     RDKit          3D

 28 27  0  0  0  0  0  0  0  0999 V2000
   -4.2342    1.4168   -0.1914 N   0  0  0  0  0  0  0  0  0  0  0  0
   -3.0140    1.1373   -0.6665 O   0  0  0  0  0  0  0  0  0  0  0  0
   -2.3384    0.3188    0.2593 C   0  0  0  0  0  0  0  0  0  0  0  0
   -0.9743    0.0463   -0.3435 C   0  0  2  0  0  0  0  0  0  0  0  0
   -1.1681   -0.5979   -1.5632 O   0  0  0  0  0  0  0  0  0  0  0  0
   -0.1104   -0.8004    0.5590 C   0  0  2  0  0  0  0  0  0  0  0  0
    0.1236   -0.2293    1.7797 O   0  0  0  0  0  0  0  0  0  0  0  0
    1.1303   -1.1902   -0.1951 C   0  0  2  0  0  0  0  0  0  0  0  0
    1.9028   -2.1163    0.5020 O   0  0  0  0  0  0  0  0  0  0  0  0
    1.9368   -0.0463   -0.7033 C   0  0  2  0  0  0  0  0  0  0  0  0
    2.9130   -0.5546   -1.5622 O   0  0  0  0  0  0  0  0  0  0  0  0
    2.6207    0.7632    0.3529 C   0  0  0  0  0  0  0  0  0  0  0  0
    3.3345    1.8181   -0.2151 O   0  0  0  0  0  0  0  0  0  0  0  0
   -4.8562    0.6053   -0.3686 H   0  0  0  0  0  0  0  0  0  0  0  0
   -4.6006    2.2276   -0.7382 H   0  0  0  0  0  0  0  0  0  0  0  0
   -2.9210   -0.6166    0.3778 H   0  0  0  0  0  0  0  0  0  0  0  0
   -2.2634    0.8320    1.2354 H   0  0  0  0  0  0  0  0  0  0  0  0
   -0.5314    1.0330   -0.5678 H   0  0  0  0  0  0  0  0  0  0  0  0
   -1.5822   -1.4740   -1.3624 H   0  0  0  0  0  0  0  0  0  0  0  0
   -0.6715   -1.7433    0.7408 H   0  0  0  0  0  0  0  0  0  0  0  0
   -0.6265   -0.4324    2.3807 H   0  0  0  0  0  0  0  0  0  0  0  0
    0.7593   -1.7411   -1.1046 H   0  0  0  0  0  0  0  0  0  0  0  0
    1.9247   -1.8660    1.4555 H   0  0  0  0  0  0  0  0  0  0  0  0
    1.3188    0.6305   -1.3271 H   0  0  0  0  0  0  0  0  0  0  0  0
    3.3391   -1.3676   -1.2283 H   0  0  0  0  0  0  0  0  0  0  0  0
    3.3000    0.2115    0.9929 H   0  0  0  0  0  0  0  0  0  0  0  0
    1.8521    1.2321    1.0120 H   0  0  0  0  0  0  0  0  0  0  0  0
    3.4365    2.5035    0.4892 H   0  0  0  0  0  0  0  0  0  0  0  0
  1  2  1  0
  2  3  1  0
  3  4  1  0
  4  5  1  0
  4  6  1  0
  6  7  1  0
  6  8  1  0
  8  9  1  0
  8 10  1  0
 10 11  1  0
 10 12  1  0
 12 13  1  0
  1 14  1  0
  1 15  1  0
  3 16  1  0
  3 17  1  0
  4 18  1  6
  5 19  1  0
  6 20  1  1
  7 21  1  0
  8 22  1  6
  9 23  1  0
 10 24  1  6
 11 25  1  0
 12 26  1  0
 12 27  1  0
 13 28  1  0
M  END
$$$$

     RDKit          3D

 28 27  0  0  0  0  0  0  0  0999 V2000
   -3.7276   -0.9095   -0.8191 N   0  0  0  0  0  0  0  0  0  0  0  0
   -3.4321   -0.5063    0.4511 O   0  0  0  0  0  0  0  0  0  0  0  0
   -2.0628   -0.8604    0.5927 C   0  0  0  0  0  0  0  0  0  0  0  0
   -1.3402    0.4559    0.7775 C   0  0  2  0  0  0  0  0  0  0  0  0
   -2.1716    1.4557    0.1558 O   0  0  0  0  0  0  0  0  0  0  0  0
   -0.1325    0.4542   -0.2391 C   0  0  2  0  0  0  0  0  0  0  0  0
   -0.6481    0.0956   -1.4689 O   0  0  0  0  0  0  0  0  0  0  0  0
    0.9564   -0.5328    0.2539 C   0  0  2  0  0  0  0  0  0  0  0  0
    0.4272   -1.3637    1.1848 O   0  0  0  0  0  0  0  0  0  0  0  0
    2.1859    0.2970    0.6977 C   0  0  2  0  0  0  0  0  0  0  0  0
    1.6740    1.5645    1.0603 O   0  0  0  0  0  0  0  0  0  0  0  0
    3.1936    0.4343   -0.3915 C   0  0  0  0  0  0  0  0  0  0  0  0
    4.0820   -0.6581   -0.4185 O   0  0  0  0  0  0  0  0  0  0  0  0
   -4.0744   -1.7196   -1.1301 H   0  0  0  0  0  0  0  0  0  0  0  0
   -4.1192   -0.0052   -1.3215 H   0  0  0  0  0  0  0  0  0  0  0  0
   -1.6942   -1.6532    0.0631 H   0  0  0  0  0  0  0  0  0  0  0  0
   -2.1180   -1.2879    1.7362 H   0  0  0  0  0  0  0  0  0  0  0  0
   -1.0507    0.7588    1.6972 H   0  0  0  0  0  0  0  0  0  0  0  0
   -2.0778    1.5106   -0.8090 H   0  0  0  0  0  0  0  0  0  0  0  0
    0.2494    1.4490   -0.2496 H   0  0  0  0  0  0  0  0  0  0  0  0
   -0.3536    0.7976   -2.1723 H   0  0  0  0  0  0  0  0  0  0  0  0
    1.2871   -1.1158   -0.6216 H   0  0  0  0  0  0  0  0  0  0  0  0
    0.2627   -0.9648    2.0531 H   0  0  0  0  0  0  0  0  0  0  0  0
    2.6213   -0.1473    1.5918 H   0  0  0  0  0  0  0  0  0  0  0  0
    2.0179    2.2522    0.4084 H   0  0  0  0  0  0  0  0  0  0  0  0
    3.7075    1.3639   -0.3356 H   0  0  0  0  0  0  0  0  0  0  0  0
    2.6696    0.3533   -1.4181 H   0  0  0  0  0  0  0  0  0  0  0  0
    3.6681   -1.5182   -0.3645 H   0  0  0  0  0  0  0  0  0  0  0  0
  1  2  1  0
  2  3  1  0
  3  4  1  0
  4  5  1  0
  4  6  1  0
  6  7  1  0
  6  8  1  0
  8  9  1  0
  8 10  1  0
 10 11  1  0
 10 12  1  0
 12 13  1  0
  1 14  1  0
  1 15  1  0
  3 16  1  0
  3 17  1  0
  4 18  1  1
  5 19  1  0
  6 20  1  6
  7 21  1  0
  8 22  1  6
  9 23  1  0
 10 24  1  1
 11 25  1  0
 12 26  1  0
 12 27  1  0
 13 28  1  0
M  END
$$$$

     RDKit          3D

 28 27  0  0  0  0  0  0  0  0999 V2000
   -4.6202    0.6721   -0.0348 N   0  0  0  0  0  0  0  0  0  0  0  0
   -3.3829    0.5639   -0.5765 O   0  0  0  0  0  0  0  0  0  0  0  0
   -2.4806    0.0225    0.3137 C   0  0  0  0  0  0  0  0  0  0  0  0
   -1.1303   -0.0548   -0.3909 C   0  0  2  0  0  0  0  0  0  0  0  0
   -1.1910   -0.8530   -1.5315 O   0  0  0  0  0  0  0  0  0  0  0  0
   -0.1553   -0.6144    0.6120 C   0  0  2  0  0  0  0  0  0  0  0  0
   -0.0849    0.1634    1.7432 O   0  0  0  0  0  0  0  0  0  0  0  0
    1.2267   -0.8072    0.0489 C   0  0  2  0  0  0  0  0  0  0  0  0
    1.9619   -1.4493    1.0767 O   0  0  0  0  0  0  0  0  0  0  0  0
    1.9463    0.4958   -0.1959 C   0  0  2  0  0  0  0  0  0  0  0  0
    1.3792    1.2721   -1.1707 O   0  0  0  0  0  0  0  0  0  0  0  0
    3.3681    0.1689   -0.6087 C   0  0  0  0  0  0  0  0  0  0  0  0
    4.1231    1.3453   -0.7663 O   0  0  0  0  0  0  0  0  0  0  0  0
   -5.1251   -0.2244   -0.1449 H   0  0  0  0  0  0  0  0  0  0  0  0
   -5.1880    1.4115   -0.5068 H   0  0  0  0  0  0  0  0  0  0  0  0
   -2.3562    0.7324    1.1527 H   0  0  0  0  0  0  0  0  0  0  0  0
   -2.7936   -0.9673    0.7001 H   0  0  0  0  0  0  0  0  0  0  0  0
   -0.8938    0.9661   -0.7195 H   0  0  0  0  0  0  0  0  0  0  0  0
   -1.6061   -1.7291   -1.3601 H   0  0  0  0  0  0  0  0  0  0  0  0
   -0.5345   -1.6153    0.9065 H   0  0  0  0  0  0  0  0  0  0  0  0
   -0.1050   -0.3660    2.5833 H   0  0  0  0  0  0  0  0  0  0  0  0
    1.2475   -1.4892   -0.8104 H   0  0  0  0  0  0  0  0  0  0  0  0
    1.9553   -0.7938    1.8266 H   0  0  0  0  0  0  0  0  0  0  0  0
    2.0165    1.0137    0.7842 H   0  0  0  0  0  0  0  0  0  0  0  0
    1.6232    0.9297   -2.0662 H   0  0  0  0  0  0  0  0  0  0  0  0
    3.8871   -0.4716    0.1443 H   0  0  0  0  0  0  0  0  0  0  0  0
    3.4185   -0.3673   -1.5765 H   0  0  0  0  0  0  0  0  0  0  0  0
    3.4940    2.0447   -1.0941 H   0  0  0  0  0  0  0  0  0  0  0  0
  1  2  1  0
  2  3  1  0
  3  4  1  0
  4  5  1  0
  4  6  1  0
  6  7  1  0
  6  8  1  0
  8  9  1  0
  8 10  1  0
 10 11  1  0
 10 12  1  0
 12 13  1  0
  1 14  1  0
  1 15  1  0
  3 16  1  0
  3 17  1  0
  4 18  1  6
  5 19  1  0
  6 20  1  1
  7 21  1  0
  8 22  1  6
  9 23  1  0
 10 24  1  1
 11 25  1  0
 12 26  1  0
 12 27  1  0
 13 28  1  0
M  END
$$$$

     RDKit          3D

 28 27  0  0  0  0  0  0  0  0999 V2000
   -3.9590   -1.3383   -0.3011 N   0  0  0  0  0  0  0  0  0  0  0  0
   -2.7753   -0.7642   -0.5124 O   0  0  0  0  0  0  0  0  0  0  0  0
   -2.5941    0.3847    0.2736 C   0  0  0  0  0  0  0  0  0  0  0  0
   -1.2383    1.0091    0.0057 C   0  0  2  0  0  0  0  0  0  0  0  0
   -1.1841    1.3501   -1.3431 O   0  0  0  0  0  0  0  0  0  0  0  0
   -0.1134    0.0670    0.3848 C   0  0  2  0  0  0  0  0  0  0  0  0
   -0.1891   -0.2530    1.7168 O   0  0  0  0  0  0  0  0  0  0  0  0
    1.1975    0.7018    0.0022 C   0  0  2  0  0  0  0  0  0  0  0  0
    1.2023    0.9941   -1.3403 O   0  0  0  0  0  0  0  0  0  0  0  0
    2.3843   -0.1082    0.4219 C   0  0  2  0  0  0  0  0  0  0  0  0
    3.5373    0.6106    0.1384 O   0  0  0  0  0  0  0  0  0  0  0  0
    2.4804   -1.4342   -0.2818 C   0  0  0  0  0  0  0  0  0  0  0  0
    2.5944   -1.2902   -1.6601 O   0  0  0  0  0  0  0  0  0  0  0  0
   -4.3026   -1.3116    0.6668 H   0  0  0  0  0  0  0  0  0  0  0  0
   -3.9965   -2.2434   -0.7771 H   0  0  0  0  0  0  0  0  0  0  0  0
   -3.3596    1.1222   -0.0238 H   0  0  0  0  0  0  0  0  0  0  0  0
   -2.7122    0.1229    1.3363 H   0  0  0  0  0  0  0  0  0  0  0  0
   -1.1171    1.9361    0.5799 H   0  0  0  0  0  0  0  0  0  0  0  0
   -1.8617    0.9272   -1.8937 H   0  0  0  0  0  0  0  0  0  0  0  0
   -0.2327   -0.8527   -0.2163 H   0  0  0  0  0  0  0  0  0  0  0  0
   -0.4639    0.4643    2.3141 H   0  0  0  0  0  0  0  0  0  0  0  0
    1.2531    1.6715    0.5523 H   0  0  0  0  0  0  0  0  0  0  0  0
    1.0854    1.9740   -1.5185 H   0  0  0  0  0  0  0  0  0  0  0  0
    2.3570   -0.2756    1.5138 H   0  0  0  0  0  0  0  0  0  0  0  0
    3.3615    1.5836    0.0221 H   0  0  0  0  0  0  0  0  0  0  0  0
    1.6907   -2.1409   -0.0246 H   0  0  0  0  0  0  0  0  0  0  0  0
    3.4450   -1.9011    0.0592 H   0  0  0  0  0  0  0  0  0  0  0  0
    3.5108   -1.0056   -1.9277 H   0  0  0  0  0  0  0  0  0  0  0  0
  1  2  1  0
  2  3  1  0
  3  4  1  0
  4  5  1  0
  4  6  1  0
  6  7  1  0
  6  8  1  0
  8  9  1  0
  8 10  1  0
 10 11  1  0
 10 12  1  0
 12 13  1  0
  1 14  1  0
  1 15  1  0
  3 16  1  0
  3 17  1  0
  4 18  1  1
  5 19  1  0
  6 20  1  6
  7 21  1  0
  8 22  1  1
  9 23  1  0
 10 24  1  1
 11 25  1  0
 12 26  1  0
 12 27  1  0
 13 28  1  0
M  END
$$$$

     RDKit          3D

 28 27  0  0  0  0  0  0  0  0999 V2000
    2.8619    0.0953    2.3327 N   0  0  0  0  0  0  0  0  0  0  0  0
    2.3827    0.1932    1.0832 O   0  0  0  0  0  0  0  0  0  0  0  0
    2.0214   -1.0198    0.5423 C   0  0  0  0  0  0  0  0  0  0  0  0
    1.4987   -0.7785   -0.8624 C   0  0  2  0  0  0  0  0  0  0  0  0
    2.5371   -0.1912   -1.5834 O   0  0  0  0  0  0  0  0  0  0  0  0
    0.2701    0.1181   -0.8433 C   0  0  2  0  0  0  0  0  0  0  0  0
    0.5525    1.3317   -0.2613 O   0  0  0  0  0  0  0  0  0  0  0  0
   -0.8282   -0.6484   -0.1659 C   0  0  2  0  0  0  0  0  0  0  0  0
   -0.9893   -1.8497   -0.8763 O   0  0  0  0  0  0  0  0  0  0  0  0
   -2.1510    0.0572   -0.1922 C   0  0  2  0  0  0  0  0  0  0  0  0
   -2.5896    0.3485   -1.4618 O   0  0  0  0  0  0  0  0  0  0  0  0
   -2.1973    1.2845    0.6757 C   0  0  0  0  0  0  0  0  0  0  0  0
   -3.5479    1.7022    0.7007 O   0  0  0  0  0  0  0  0  0  0  0  0
    3.7137    0.6965    2.4006 H   0  0  0  0  0  0  0  0  0  0  0  0
    3.0509   -0.8837    2.5967 H   0  0  0  0  0  0  0  0  0  0  0  0
    1.3460   -1.6205    1.1482 H   0  0  0  0  0  0  0  0  0  0  0  0
    2.9625   -1.6129    0.4155 H   0  0  0  0  0  0  0  0  0  0  0  0
    1.2739   -1.7492   -1.3328 H   0  0  0  0  0  0  0  0  0  0  0  0
    2.6992   -0.6633   -2.4461 H   0  0  0  0  0  0  0  0  0  0  0  0
    0.0083    0.2982   -1.9067 H   0  0  0  0  0  0  0  0  0  0  0  0
    0.6736    2.0476   -0.9594 H   0  0  0  0  0  0  0  0  0  0  0  0
   -0.5637   -0.8821    0.8783 H   0  0  0  0  0  0  0  0  0  0  0  0
   -1.4009   -1.5915   -1.7400 H   0  0  0  0  0  0  0  0  0  0  0  0
   -2.8996   -0.6638    0.2474 H   0  0  0  0  0  0  0  0  0  0  0  0
   -3.5560    0.2144   -1.5948 H   0  0  0  0  0  0  0  0  0  0  0  0
   -1.5703    2.1078    0.3332 H   0  0  0  0  0  0  0  0  0  0  0  0
   -1.9455    1.0530    1.7311 H   0  0  0  0  0  0  0  0  0  0  0  0
   -3.6131    2.6062    1.1409 H   0  0  0  0  0  0  0  0  0  0  0  0
  1  2  1  0
  2  3  1  0
  3  4  1  0
  4  5  1  0
  4  6  1  0
  6  7  1  0
  6  8  1  0
  8  9  1  0
  8 10  1  0
 10 11  1  0
 10 12  1  0
 12 13  1  0
  1 14  1  0
  1 15  1  0
  3 16  1  0
  3 17  1  0
  4 18  1  6
  5 19  1  0
  6 20  1  6
  7 21  1  0
  8 22  1  1
  9 23  1  0
 10 24  1  1
 11 25  1  0
 12 26  1  0
 12 27  1  0
 13 28  1  0
M  END
$$$$

     RDKit          3D

 28 27  0  0  0  0  0  0  0  0999 V2000
   -2.8448    2.0244    1.5727 N   0  0  0  0  0  0  0  0  0  0  0  0
   -2.3631    1.3163    0.5696 O   0  0  0  0  0  0  0  0  0  0  0  0
   -2.2726   -0.0449    0.8051 C   0  0  0  0  0  0  0  0  0  0  0  0
   -1.7104   -0.7580   -0.4049 C   0  0  2  0  0  0  0  0  0  0  0  0
   -1.6107   -2.1184   -0.1926 O   0  0  0  0  0  0  0  0  0  0  0  0
   -0.3754   -0.1930   -0.8343 C   0  0  2  0  0  0  0  0  0  0  0  0
   -0.0300   -0.8563   -2.0279 O   0  0  0  0  0  0  0  0  0  0  0  0
    0.7111   -0.5380    0.1625 C   0  0  2  0  0  0  0  0  0  0  0  0
    0.4923    0.0597    1.4000 O   0  0  0  0  0  0  0  0  0  0  0  0
    2.0805   -0.2937   -0.3786 C   0  0  2  0  0  0  0  0  0  0  0  0
    3.0076   -0.8151    0.5278 O   0  0  0  0  0  0  0  0  0  0  0  0
    2.4022    1.1535   -0.5800 C   0  0  0  0  0  0  0  0  0  0  0  0
    3.7116    1.2273   -1.0901 O   0  0  0  0  0  0  0  0  0  0  0  0
   -3.6557    2.6214    1.3581 H   0  0  0  0  0  0  0  0  0  0  0  0
   -2.1386    2.4628    2.1948 H   0  0  0  0  0  0  0  0  0  0  0  0
   -1.7881   -0.3153    1.7442 H   0  0  0  0  0  0  0  0  0  0  0  0
   -3.3386   -0.4107    0.8947 H   0  0  0  0  0  0  0  0  0  0  0  0
   -2.4477   -0.6121   -1.2236 H   0  0  0  0  0  0  0  0  0  0  0  0
   -2.4775   -2.5994   -0.3195 H   0  0  0  0  0  0  0  0  0  0  0  0
   -0.4436    0.8719   -1.0626 H   0  0  0  0  0  0  0  0  0  0  0  0
   -0.2710   -1.8208   -1.8584 H   0  0  0  0  0  0  0  0  0  0  0  0
    0.6282   -1.6455    0.3461 H   0  0  0  0  0  0  0  0  0  0  0  0
    0.6253   -0.5509    2.1603 H   0  0  0  0  0  0  0  0  0  0  0  0
    2.1764   -0.8192   -1.3357 H   0  0  0  0  0  0  0  0  0  0  0  0
    3.3921   -1.6712    0.2238 H   0  0  0  0  0  0  0  0  0  0  0  0
    2.4080    1.7314    0.3674 H   0  0  0  0  0  0  0  0  0  0  0  0
    1.7562    1.6493   -1.3292 H   0  0  0  0  0  0  0  0  0  0  0  0
    4.3764    0.9446   -0.3996 H   0  0  0  0  0  0  0  0  0  0  0  0
  1  2  1  0
  2  3  1  0
  3  4  1  0
  4  5  1  0
  4  6  1  0
  6  7  1  0
  6  8  1  0
  8  9  1  0
  8 10  1  0
 10 11  1  0
 10 12  1  0
 12 13  1  0
  1 14  1  0
  1 15  1  0
  3 16  1  0
  3 17  1  0
  4 18  1  6
  5 19  1  0
  6 20  1  6
  7 21  1  0
  8 22  1  1
  9 23  1  0
 10 24  1  6
 11 25  1  0
 12 26  1  0
 12 27  1  0
 13 28  1  0
M  END
$$$$

     RDKit          3D

 28 27  0  0  0  0  0  0  0  0999 V2000
    3.8091    1.7912   -0.1075 N   0  0  0  0  0  0  0  0  0  0  0  0
    3.1282    0.6986   -0.5059 O   0  0  0  0  0  0  0  0  0  0  0  0
    1.8928    0.6024    0.1774 C   0  0  0  0  0  0  0  0  0  0  0  0
    1.1632   -0.6422   -0.3044 C   0  0  2  0  0  0  0  0  0  0  0  0
    0.9373   -0.5581   -1.6488 O   0  0  0  0  0  0  0  0  0  0  0  0
    0.0806   -1.0766    0.5731 C   0  0  2  0  0  0  0  0  0  0  0  0
   -0.3143   -2.3857    0.1846 O   0  0  0  0  0  0  0  0  0  0  0  0
   -1.0967   -0.3060    0.8887 C   0  0  2  0  0  0  0  0  0  0  0  0
   -1.7466   -0.9764    1.9773 O   0  0  0  0  0  0  0  0  0  0  0  0
   -2.1744   -0.0685   -0.0940 C   0  0  2  0  0  0  0  0  0  0  0  0
   -2.7954   -1.2105   -0.5839 O   0  0  0  0  0  0  0  0  0  0  0  0
   -1.9395    1.0031   -1.1091 C   0  0  0  0  0  0  0  0  0  0  0  0
   -1.3093    2.0667   -0.4332 O   0  0  0  0  0  0  0  0  0  0  0  0
    3.5889    1.9209    0.9102 H   0  0  0  0  0  0  0  0  0  0  0  0
    4.8334    1.6909   -0.2003 H   0  0  0  0  0  0  0  0  0  0  0  0
    1.3162    1.5199    0.0968 H   0  0  0  0  0  0  0  0  0  0  0  0
    2.1834    0.5004    1.2572 H   0  0  0  0  0  0  0  0  0  0  0  0
    1.9813   -1.4366   -0.2308 H   0  0  0  0  0  0  0  0  0  0  0  0
    1.1863   -1.3318   -2.1749 H   0  0  0  0  0  0  0  0  0  0  0  0
    0.5968   -1.3087    1.5682 H   0  0  0  0  0  0  0  0  0  0  0  0
   -0.5946   -2.9216    0.9536 H   0  0  0  0  0  0  0  0  0  0  0  0
   -0.8599    0.6856    1.3280 H   0  0  0  0  0  0  0  0  0  0  0  0
   -2.1768   -1.7686    1.5313 H   0  0  0  0  0  0  0  0  0  0  0  0
   -3.0182    0.3884    0.5368 H   0  0  0  0  0  0  0  0  0  0  0  0
   -2.4939   -1.3141   -1.5212 H   0  0  0  0  0  0  0  0  0  0  0  0
   -2.9248    1.4586   -1.4426 H   0  0  0  0  0  0  0  0  0  0  0  0
   -1.4375    0.7223   -2.0199 H   0  0  0  0  0  0  0  0  0  0  0  0
   -1.8157    2.2566    0.3935 H   0  0  0  0  0  0  0  0  0  0  0  0
  1  2  1  0
  2  3  1  0
  3  4  1  0
  4  5  1  0
  4  6  1  0
  6  7  1  0
  6  8  1  0
  8  9  1  0
  8 10  1  0
 10 11  1  0
 10 12  1  0
 12 13  1  0
  1 14  1  0
  1 15  1  0
  3 16  1  0
  3 17  1  0
  4 18  1  6
  5 19  1  0
  6 20  1  1
  7 21  1  0
  8 22  1  1
  9 23  1  0
 10 24  1  1
 11 25  1  0
 12 26  1  0
 12 27  1  0
 13 28  1  0
M  END
$$$$

     RDKit          3D

 28 27  0  0  0  0  0  0  0  0999 V2000
    4.0414   -0.6299   -0.5120 N   0  0  0  0  0  0  0  0  0  0  0  0
    2.6412   -0.7713   -0.7612 O   0  0  0  0  0  0  0  0  0  0  0  0
    2.1564   -0.6864    0.6270 C   0  0  0  0  0  0  0  0  0  0  0  0
    1.3924    0.5527    0.5931 C   0  0  2  0  0  0  0  0  0  0  0  0
    1.6970    1.3567    1.7571 O   0  0  0  0  0  0  0  0  0  0  0  0
    0.0008    0.7239    0.3749 C   0  0  2  0  0  0  0  0  0  0  0  0
   -0.8414    0.5764    1.4698 O   0  0  0  0  0  0  0  0  0  0  0  0
   -0.5635   -0.4129   -0.5857 C   0  0  2  0  0  0  0  0  0  0  0  0
    0.2507   -0.4550   -1.6788 O   0  0  0  0  0  0  0  0  0  0  0  0
   -1.9347    0.1216   -0.8864 C   0  0  2  0  0  0  0  0  0  0  0  0
   -2.1031    1.5035   -0.9558 O   0  0  0  0  0  0  0  0  0  0  0  0
   -3.0932   -0.5404   -0.2776 C   0  0  0  0  0  0  0  0  0  0  0  0
   -2.8072   -1.8936    0.0125 O   0  0  0  0  0  0  0  0  0  0  0  0
    4.3047    0.0608   -1.3438 H   0  0  0  0  0  0  0  0  0  0  0  0
    4.0653    0.1639    0.2794 H   0  0  0  0  0  0  0  0  0  0  0  0
    1.3922   -1.5885    0.6984 H   0  0  0  0  0  0  0  0  0  0  0  0
    2.8983   -0.8494    1.3107 H   0  0  0  0  0  0  0  0  0  0  0  0
    1.9505    1.2291   -0.2043 H   0  0  0  0  0  0  0  0  0  0  0  0
    1.1662    0.8676    2.4558 H   0  0  0  0  0  0  0  0  0  0  0  0
   -0.2312    1.6584   -0.1635 H   0  0  0  0  0  0  0  0  0  0  0  0
   -0.8672   -0.3395    1.8195 H   0  0  0  0  0  0  0  0  0  0  0  0
   -0.6689   -1.3344   -0.0668 H   0  0  0  0  0  0  0  0  0  0  0  0
    0.3487    0.2701   -2.2528 H   0  0  0  0  0  0  0  0  0  0  0  0
   -2.0788   -0.0891   -2.0832 H   0  0  0  0  0  0  0  0  0  0  0  0
   -2.6116    1.8080   -0.1054 H   0  0  0  0  0  0  0  0  0  0  0  0
   -3.9531   -0.6530   -1.0709 H   0  0  0  0  0  0  0  0  0  0  0  0
   -3.5392   -0.0652    0.5414 H   0  0  0  0  0  0  0  0  0  0  0  0
   -3.0126   -2.0385    1.0085 H   0  0  0  0  0  0  0  0  0  0  0  0
  1  2  1  0
  2  3  1  0
  3  4  1  0
  4  5  1  0
  4  6  1  0
  6  7  1  0
  6  8  1  0
  8  9  1  0
  8 10  1  0
 10 11  1  0
 10 12  1  0
 12 13  1  0
  1 14  1  0
  1 15  1  0
  3 16  1  0
  3 17  1  0
  4 18  1  6
  5 19  1  0
  6 20  1  6
  7 21  1  0
  8 22  1  1
  9 23  1  0
 10 24  1  6
 11 25  1  0
 12 26  1  0
 12 27  1  0
 13 28  1  0
M  END
$$$$
