
     RDKit          3D

 26 26  0  0  0  0  0  0  0  0999 V2000
   -1.1072    2.4428    0.3757 C   0  0  0  0  0  0  0  0  0  0  0  0
   -1.2710    1.8663   -0.9192 N   0  0  0  0  0  0  0  0  0  0  0  0
   -0.9137    0.4548   -1.0008 C   0  0  2  0  0  0  0  0  0  0  0  0
   -1.7797   -0.3913   -0.1313 C   0  0  0  0  0  0  0  0  0  0  0  0
   -1.4152   -1.8133   -0.2505 C   0  0  0  0  0  0  0  0  0  0  0  0
   -2.0806   -2.7699    0.5582 N   0  0  0  0  0  0  0  0  0  0  0  0
   -0.5299   -2.1671   -1.0551 O   0  0  0  0  0  0  0  0  0  0  0  0
    0.5264    0.3066   -0.7115 C   0  0  0  0  0  0  0  0  0  0  0  0
    1.4858    1.1152   -1.3120 C   0  0  0  0  0  0  0  0  0  0  0  0
    2.6587    0.6976   -0.8075 N   0  0  0  0  0  0  0  0  0  0  0  0
    2.4597   -0.2883    0.0376 N   0  0  0  0  0  0  0  0  0  0  0  0
    3.5621   -0.9374    0.7371 C   0  0  0  0  0  0  0  0  0  0  0  0
    1.1632   -0.5292    0.0982 N   0  0  0  0  0  0  0  0  0  0  0  0
   -0.4821    3.3811    0.3263 H   0  0  0  0  0  0  0  0  0  0  0  0
   -0.5835    1.7507    1.0460 H   0  0  0  0  0  0  0  0  0  0  0  0
   -2.0989    2.7085    0.8452 H   0  0  0  0  0  0  0  0  0  0  0  0
   -2.2086    2.0240   -1.2914 H   0  0  0  0  0  0  0  0  0  0  0  0
   -1.0932    0.1739   -2.0597 H   0  0  0  0  0  0  0  0  0  0  0  0
   -1.7515   -0.0812    0.9366 H   0  0  0  0  0  0  0  0  0  0  0  0
   -2.8397   -0.2985   -0.4544 H   0  0  0  0  0  0  0  0  0  0  0  0
   -2.6874   -3.4679    0.0819 H   0  0  0  0  0  0  0  0  0  0  0  0
   -1.9905   -2.8022    1.5761 H   0  0  0  0  0  0  0  0  0  0  0  0
    1.3028    1.9159   -2.0366 H   0  0  0  0  0  0  0  0  0  0  0  0
    3.9753   -0.2779    1.5400 H   0  0  0  0  0  0  0  0  0  0  0  0
    4.4416   -1.0934    0.0450 H   0  0  0  0  0  0  0  0  0  0  0  0
    3.2570   -1.9200    1.1396 H   0  0  0  0  0  0  0  0  0  0  0  0
  1  2  1  0
  2  3  1  0
  3  4  1  0
  4  5  1  0
  5  6  1  0
  5  7  2  0
  3  8  1  0
  8  9  1  0
  9 10  2  0
 10 11  1  0
 11 12  1  0
 11 13  1  0
 13  8  2  0
  1 14  1  0
  1 15  1  0
  1 16  1  0
  2 17  1  0
  3 18  1  6
  4 19  1  0
  4 20  1  0
  6 21  1  0
  6 22  1  0
  9 23  1  0
 12 24  1  0
 12 25  1  0
 12 26  1  0
M  END
$$$$

     RDKit          3D

 26 26  0  0  0  0  0  0  0  0999 V2000
   -1.7452    2.7394   -0.6022 C   0  0  0  0  0  0  0  0  0  0  0  0
   -0.4972    2.0311   -0.4415 N   0  0  0  0  0  0  0  0  0  0  0  0
   -0.6601    0.5918   -0.5399 C   0  0  2  0  0  0  0  0  0  0  0  0
   -1.5484    0.0643    0.5646 C   0  0  0  0  0  0  0  0  0  0  0  0
   -1.6934   -1.4009    0.4377 C   0  0  0  0  0  0  0  0  0  0  0  0
   -2.4806   -2.1240    1.3854 N   0  0  0  0  0  0  0  0  0  0  0  0
   -1.1612   -2.0852   -0.4684 O   0  0  0  0  0  0  0  0  0  0  0  0
    0.6906   -0.0074   -0.4531 C   0  0  0  0  0  0  0  0  0  0  0  0
    1.1948   -0.9094   -1.3623 C   0  0  0  0  0  0  0  0  0  0  0  0
    2.4340   -1.2690   -0.9868 N   0  0  0  0  0  0  0  0  0  0  0  0
    2.6997   -0.6093    0.1284 N   0  0  0  0  0  0  0  0  0  0  0  0
    3.9764   -0.7695    0.8175 C   0  0  0  0  0  0  0  0  0  0  0  0
    1.6574    0.1561    0.4633 N   0  0  0  0  0  0  0  0  0  0  0  0
   -2.3177    2.8765    0.3155 H   0  0  0  0  0  0  0  0  0  0  0  0
   -2.3282    2.2348   -1.4187 H   0  0  0  0  0  0  0  0  0  0  0  0
   -1.5043    3.7437   -1.0075 H   0  0  0  0  0  0  0  0  0  0  0  0
    0.0869    2.3008   -1.2861 H   0  0  0  0  0  0  0  0  0  0  0  0
   -1.1356    0.3150   -1.4982 H   0  0  0  0  0  0  0  0  0  0  0  0
   -1.1519    0.2874    1.5633 H   0  0  0  0  0  0  0  0  0  0  0  0
   -2.5636    0.4922    0.3992 H   0  0  0  0  0  0  0  0  0  0  0  0
   -2.0872   -2.4195    2.2811 H   0  0  0  0  0  0  0  0  0  0  0  0
   -3.4686   -2.3486    1.1505 H   0  0  0  0  0  0  0  0  0  0  0  0
    0.7217   -1.3017   -2.2610 H   0  0  0  0  0  0  0  0  0  0  0  0
    4.1168   -1.8876    0.9013 H   0  0  0  0  0  0  0  0  0  0  0  0
    4.7741   -0.4141    0.1192 H   0  0  0  0  0  0  0  0  0  0  0  0
    3.9907   -0.2869    1.7988 H   0  0  0  0  0  0  0  0  0  0  0  0
  1  2  1  0
  2  3  1  0
  3  4  1  0
  4  5  1  0
  5  6  1  0
  5  7  2  0
  3  8  1  0
  8  9  1  0
  9 10  2  0
 10 11  1  0
 11 12  1  0
 11 13  1  0
 13  8  2  0
  1 14  1  0
  1 15  1  0
  1 16  1  0
  2 17  1  0
  3 18  1  6
  4 19  1  0
  4 20  1  0
  6 21  1  0
  6 22  1  0
  9 23  1  0
 12 24  1  0
 12 25  1  0
 12 26  1  0
M  END
$$$$

     RDKit          3D

 26 26  0  0  0  0  0  0  0  0999 V2000
   -2.3433   -2.3575    0.1761 C   0  0  0  0  0  0  0  0  0  0  0  0
   -1.0145   -1.9911   -0.1644 N   0  0  0  0  0  0  0  0  0  0  0  0
   -0.7169   -0.5945    0.0112 C   0  0  2  0  0  0  0  0  0  0  0  0
   -1.5428    0.2998   -0.8780 C   0  0  0  0  0  0  0  0  0  0  0  0
   -1.1521    1.7057   -0.6074 C   0  0  0  0  0  0  0  0  0  0  0  0
   -2.0502    2.5378    0.1307 N   0  0  0  0  0  0  0  0  0  0  0  0
   -0.0726    2.2188   -0.9879 O   0  0  0  0  0  0  0  0  0  0  0  0
    0.7297   -0.3351   -0.1792 C   0  0  0  0  0  0  0  0  0  0  0  0
    1.5203   -0.8199   -1.2220 C   0  0  0  0  0  0  0  0  0  0  0  0
    2.7589   -0.3497   -1.0019 N   0  0  0  0  0  0  0  0  0  0  0  0
    2.7721    0.3804    0.0943 N   0  0  0  0  0  0  0  0  0  0  0  0
    3.9133    1.0717    0.6930 C   0  0  0  0  0  0  0  0  0  0  0  0
    1.5498    0.3877    0.5874 N   0  0  0  0  0  0  0  0  0  0  0  0
   -2.3130   -3.3420    0.7107 H   0  0  0  0  0  0  0  0  0  0  0  0
   -3.0432   -2.4761   -0.6674 H   0  0  0  0  0  0  0  0  0  0  0  0
   -2.7172   -1.6370    0.9487 H   0  0  0  0  0  0  0  0  0  0  0  0
   -0.2761   -2.6288    0.1323 H   0  0  0  0  0  0  0  0  0  0  0  0
   -0.9642   -0.3377    1.0724 H   0  0  0  0  0  0  0  0  0  0  0  0
   -2.6198    0.2093   -0.7185 H   0  0  0  0  0  0  0  0  0  0  0  0
   -1.3142    0.1072   -1.9598 H   0  0  0  0  0  0  0  0  0  0  0  0
   -2.9087    2.1478    0.5953 H   0  0  0  0  0  0  0  0  0  0  0  0
   -1.9048    3.5569    0.2476 H   0  0  0  0  0  0  0  0  0  0  0  0
    1.1558   -1.4411   -2.0148 H   0  0  0  0  0  0  0  0  0  0  0  0
    4.4450    0.3033    1.3190 H   0  0  0  0  0  0  0  0  0  0  0  0
    3.5311    1.8880    1.3505 H   0  0  0  0  0  0  0  0  0  0  0  0
    4.5774    1.4962   -0.0848 H   0  0  0  0  0  0  0  0  0  0  0  0
  1  2  1  0
  2  3  1  0
  3  4  1  0
  4  5  1  0
  5  6  1  0
  5  7  2  0
  3  8  1  0
  8  9  1  0
  9 10  2  0
 10 11  1  0
 11 12  1  0
 11 13  1  0
 13  8  2  0
  1 14  1  0
  1 15  1  0
  1 16  1  0
  2 17  1  0
  3 18  1  1
  4 19  1  0
  4 20  1  0
  6 21  1  0
  6 22  1  0
  9 23  1  0
 12 24  1  0
 12 25  1  0
 12 26  1  0
M  END
$$$$

     RDKit          3D

 26 26  0  0  0  0  0  0  0  0999 V2000
   -0.2718    2.5445    0.4807 C   0  0  0  0  0  0  0  0  0  0  0  0
   -0.8690    2.1156   -0.7567 N   0  0  0  0  0  0  0  0  0  0  0  0
   -0.9111    0.6535   -0.8460 C   0  0  2  0  0  0  0  0  0  0  0  0
   -1.7789    0.1423    0.2669 C   0  0  0  0  0  0  0  0  0  0  0  0
   -1.9023   -1.3335    0.2720 C   0  0  0  0  0  0  0  0  0  0  0  0
   -2.6773   -1.9595    1.2873 N   0  0  0  0  0  0  0  0  0  0  0  0
   -1.3230   -1.9981   -0.6156 O   0  0  0  0  0  0  0  0  0  0  0  0
    0.4848    0.1282   -0.7520 C   0  0  0  0  0  0  0  0  0  0  0  0
    1.5287    0.6979   -1.4871 C   0  0  0  0  0  0  0  0  0  0  0  0
    2.6271    0.0071   -1.1766 N   0  0  0  0  0  0  0  0  0  0  0  0
    2.3181   -0.9462   -0.3000 N   0  0  0  0  0  0  0  0  0  0  0  0
    3.2604   -1.8797    0.2523 C   0  0  0  0  0  0  0  0  0  0  0  0
    1.0110   -0.8621   -0.0495 N   0  0  0  0  0  0  0  0  0  0  0  0
   -1.0207    2.9321    1.2048 H   0  0  0  0  0  0  0  0  0  0  0  0
    0.4373    3.3737    0.2685 H   0  0  0  0  0  0  0  0  0  0  0  0
    0.3323    1.7384    0.9428 H   0  0  0  0  0  0  0  0  0  0  0  0
   -1.8530    2.4443   -0.8335 H   0  0  0  0  0  0  0  0  0  0  0  0
   -1.3220    0.3924   -1.8361 H   0  0  0  0  0  0  0  0  0  0  0  0
   -1.3102    0.4850    1.2235 H   0  0  0  0  0  0  0  0  0  0  0  0
   -2.7935    0.5541    0.1628 H   0  0  0  0  0  0  0  0  0  0  0  0
   -2.2636   -2.0788    2.2355 H   0  0  0  0  0  0  0  0  0  0  0  0
   -3.6445   -2.3058    1.1242 H   0  0  0  0  0  0  0  0  0  0  0  0
    1.4459    1.5429   -2.1762 H   0  0  0  0  0  0  0  0  0  0  0  0
    4.2196   -1.3430    0.4418 H   0  0  0  0  0  0  0  0  0  0  0  0
    2.8611   -2.3398    1.1638 H   0  0  0  0  0  0  0  0  0  0  0  0
    3.4147   -2.7055   -0.4975 H   0  0  0  0  0  0  0  0  0  0  0  0
  1  2  1  0
  2  3  1  0
  3  4  1  0
  4  5  1  0
  5  6  1  0
  5  7  2  0
  3  8  1  0
  8  9  1  0
  9 10  2  0
 10 11  1  0
 11 12  1  0
 11 13  1  0
 13  8  2  0
  1 14  1  0
  1 15  1  0
  1 16  1  0
  2 17  1  0
  3 18  1  6
  4 19  1  0
  4 20  1  0
  6 21  1  0
  6 22  1  0
  9 23  1  0
 12 24  1  0
 12 25  1  0
 12 26  1  0
M  END
$$$$

     RDKit          3D

 26 26  0  0  0  0  0  0  0  0999 V2000
   -1.4441   -2.5509   -0.9394 C   0  0  0  0  0  0  0  0  0  0  0  0
   -0.4986   -1.4771   -1.0253 N   0  0  0  0  0  0  0  0  0  0  0  0
   -0.2292   -0.9333    0.2635 C   0  0  2  0  0  0  0  0  0  0  0  0
   -1.4665   -0.3337    0.8480 C   0  0  0  0  0  0  0  0  0  0  0  0
   -2.0332    0.7581    0.0370 C   0  0  0  0  0  0  0  0  0  0  0  0
   -3.1982    1.4144    0.4894 N   0  0  0  0  0  0  0  0  0  0  0  0
   -1.5037    1.1081   -1.0338 O   0  0  0  0  0  0  0  0  0  0  0  0
    0.8539    0.0842    0.2272 C   0  0  0  0  0  0  0  0  0  0  0  0
    0.8406    1.3011    0.8369 C   0  0  0  0  0  0  0  0  0  0  0  0
    2.0263    1.8995    0.5462 N   0  0  0  0  0  0  0  0  0  0  0  0
    2.7441    1.0942   -0.2084 N   0  0  0  0  0  0  0  0  0  0  0  0
    4.0665    1.3455   -0.7369 C   0  0  0  0  0  0  0  0  0  0  0  0
    2.0417   -0.0077   -0.4068 N   0  0  0  0  0  0  0  0  0  0  0  0
   -1.5837   -2.8459    0.1251 H   0  0  0  0  0  0  0  0  0  0  0  0
   -1.1498   -3.4326   -1.5507 H   0  0  0  0  0  0  0  0  0  0  0  0
   -2.4412   -2.1596   -1.2813 H   0  0  0  0  0  0  0  0  0  0  0  0
    0.3757   -1.8627   -1.4800 H   0  0  0  0  0  0  0  0  0  0  0  0
    0.0941   -1.7332    0.9958 H   0  0  0  0  0  0  0  0  0  0  0  0
   -2.2413   -1.1314    0.9531 H   0  0  0  0  0  0  0  0  0  0  0  0
   -1.2434    0.0397    1.8870 H   0  0  0  0  0  0  0  0  0  0  0  0
   -4.1154    0.9167    0.6014 H   0  0  0  0  0  0  0  0  0  0  0  0
   -3.1424    2.4334    0.7208 H   0  0  0  0  0  0  0  0  0  0  0  0
    0.0460    1.7216    1.4384 H   0  0  0  0  0  0  0  0  0  0  0  0
    3.9275    1.9839   -1.6502 H   0  0  0  0  0  0  0  0  0  0  0  0
    4.6111    0.4197   -0.9968 H   0  0  0  0  0  0  0  0  0  0  0  0
    4.6632    1.9481   -0.0240 H   0  0  0  0  0  0  0  0  0  0  0  0
  1  2  1  0
  2  3  1  0
  3  4  1  0
  4  5  1  0
  5  6  1  0
  5  7  2  0
  3  8  1  0
  8  9  1  0
  9 10  2  0
 10 11  1  0
 11 12  1  0
 11 13  1  0
 13  8  2  0
  1 14  1  0
  1 15  1  0
  1 16  1  0
  2 17  1  0
  3 18  1  1
  4 19  1  0
  4 20  1  0
  6 21  1  0
  6 22  1  0
  9 23  1  0
 12 24  1  0
 12 25  1  0
 12 26  1  0
M  END
$$$$

     RDKit          3D

 26 26  0  0  0  0  0  0  0  0999 V2000
   -0.0202    2.8496   -0.4351 C   0  0  0  0  0  0  0  0  0  0  0  0
   -0.8391    1.9712    0.3342 N   0  0  0  0  0  0  0  0  0  0  0  0
   -1.0686    0.6754   -0.3046 C   0  0  2  0  0  0  0  0  0  0  0  0
   -1.9807   -0.0921    0.6231 C   0  0  0  0  0  0  0  0  0  0  0  0
   -2.3135   -1.4383    0.1174 C   0  0  0  0  0  0  0  0  0  0  0  0
   -1.8604   -1.9926   -1.0871 N   0  0  0  0  0  0  0  0  0  0  0  0
   -3.0735   -2.1411    0.8428 O   0  0  0  0  0  0  0  0  0  0  0  0
    0.2419   -0.0008   -0.4429 C   0  0  0  0  0  0  0  0  0  0  0  0
    0.7032   -0.6580   -1.5629 C   0  0  0  0  0  0  0  0  0  0  0  0
    1.9362   -1.1367   -1.2891 N   0  0  0  0  0  0  0  0  0  0  0  0
    2.2417   -0.7963   -0.0480 N   0  0  0  0  0  0  0  0  0  0  0  0
    3.5087   -1.1589    0.5641 C   0  0  0  0  0  0  0  0  0  0  0  0
    1.2265   -0.1129    0.4660 N   0  0  0  0  0  0  0  0  0  0  0  0
    0.8400    3.1757    0.2038 H   0  0  0  0  0  0  0  0  0  0  0  0
   -0.6245    3.7855   -0.6227 H   0  0  0  0  0  0  0  0  0  0  0  0
    0.3261    2.4359   -1.3985 H   0  0  0  0  0  0  0  0  0  0  0  0
   -1.6829    2.3801    0.7464 H   0  0  0  0  0  0  0  0  0  0  0  0
   -1.5048    0.8542   -1.2938 H   0  0  0  0  0  0  0  0  0  0  0  0
   -1.5237   -0.1037    1.6250 H   0  0  0  0  0  0  0  0  0  0  0  0
   -2.9296    0.4861    0.6979 H   0  0  0  0  0  0  0  0  0  0  0  0
   -2.1352   -1.5721   -1.9864 H   0  0  0  0  0  0  0  0  0  0  0  0
   -1.2508   -2.8231   -1.0762 H   0  0  0  0  0  0  0  0  0  0  0  0
    0.2349   -0.8096   -2.5194 H   0  0  0  0  0  0  0  0  0  0  0  0
    3.5481   -0.9408    1.6422 H   0  0  0  0  0  0  0  0  0  0  0  0
    3.6638   -2.2466    0.3716 H   0  0  0  0  0  0  0  0  0  0  0  0
    4.3363   -0.5902    0.0822 H   0  0  0  0  0  0  0  0  0  0  0  0
  1  2  1  0
  2  3  1  0
  3  4  1  0
  4  5  1  0
  5  6  1  0
  5  7  2  0
  3  8  1  0
  8  9  1  0
  9 10  2  0
 10 11  1  0
 11 12  1  0
 11 13  1  0
 13  8  2  0
  1 14  1  0
  1 15  1  0
  1 16  1  0
  2 17  1  0
  3 18  1  6
  4 19  1  0
  4 20  1  0
  6 21  1  0
  6 22  1  0
  9 23  1  0
 12 24  1  0
 12 25  1  0
 12 26  1  0
M  END
$$$$

     RDKit          3D

 26 26  0  0  0  0  0  0  0  0999 V2000
   -1.7096    2.2263   -0.6695 C   0  0  0  0  0  0  0  0  0  0  0  0
   -0.5937    1.4479   -0.4438 N   0  0  0  0  0  0  0  0  0  0  0  0
   -0.4979    0.0762   -0.5319 C   0  0  2  0  0  0  0  0  0  0  0  0
   -1.2607   -0.8238    0.3464 C   0  0  0  0  0  0  0  0  0  0  0  0
   -2.7339   -0.7685    0.2710 C   0  0  0  0  0  0  0  0  0  0  0  0
   -3.5618   -1.4832    1.1894 N   0  0  0  0  0  0  0  0  0  0  0  0
   -3.3265   -0.0776   -0.6203 O   0  0  0  0  0  0  0  0  0  0  0  0
    0.9778   -0.2686   -0.4688 C   0  0  0  0  0  0  0  0  0  0  0  0
    1.6601   -1.1644   -1.2569 C   0  0  0  0  0  0  0  0  0  0  0  0
    2.9465   -1.1386   -0.8413 N   0  0  0  0  0  0  0  0  0  0  0  0
    3.0850   -0.2926    0.1381 N   0  0  0  0  0  0  0  0  0  0  0  0
    4.2684    0.0807    0.9076 C   0  0  0  0  0  0  0  0  0  0  0  0
    1.9005    0.2364    0.3685 N   0  0  0  0  0  0  0  0  0  0  0  0
   -2.2321    2.1398   -1.6491 H   0  0  0  0  0  0  0  0  0  0  0  0
   -2.4234    2.3000    0.2014 H   0  0  0  0  0  0  0  0  0  0  0  0
   -1.3337    3.3134   -0.7117 H   0  0  0  0  0  0  0  0  0  0  0  0
    0.2697    1.9164   -0.1022 H   0  0  0  0  0  0  0  0  0  0  0  0
   -0.7656   -0.2415   -1.6014 H   0  0  0  0  0  0  0  0  0  0  0  0
   -1.0017   -1.8807    0.0173 H   0  0  0  0  0  0  0  0  0  0  0  0
   -0.9257   -0.8214    1.4115 H   0  0  0  0  0  0  0  0  0  0  0  0
   -3.2443   -1.6301    2.1588 H   0  0  0  0  0  0  0  0  0  0  0  0
   -4.4759   -1.8513    0.8851 H   0  0  0  0  0  0  0  0  0  0  0  0
    1.2472   -1.7730   -2.0553 H   0  0  0  0  0  0  0  0  0  0  0  0
    4.8149    0.9139    0.3886 H   0  0  0  0  0  0  0  0  0  0  0  0
    4.9202   -0.8227    0.9615 H   0  0  0  0  0  0  0  0  0  0  0  0
    3.9963    0.3871    1.9328 H   0  0  0  0  0  0  0  0  0  0  0  0
  1  2  1  0
  2  3  1  0
  3  4  1  0
  4  5  1  0
  5  6  1  0
  5  7  2  0
  3  8  1  0
  8  9  1  0
  9 10  2  0
 10 11  1  0
 11 12  1  0
 11 13  1  0
 13  8  2  0
  1 14  1  0
  1 15  1  0
  1 16  1  0
  2 17  1  0
  3 18  1  6
  4 19  1  0
  4 20  1  0
  6 21  1  0
  6 22  1  0
  9 23  1  0
 12 24  1  0
 12 25  1  0
 12 26  1  0
M  END
$$$$

     RDKit          3D

 26 26  0  0  0  0  0  0  0  0999 V2000
   -1.2122   -2.1709    0.1458 C   0  0  0  0  0  0  0  0  0  0  0  0
   -1.3384   -1.0682    1.0543 N   0  0  0  0  0  0  0  0  0  0  0  0
   -0.6854    0.1328    0.6380 C   0  0  2  0  0  0  0  0  0  0  0  0
   -1.2108    0.7167   -0.6239 C   0  0  0  0  0  0  0  0  0  0  0  0
   -2.6659    1.0651   -0.5032 C   0  0  0  0  0  0  0  0  0  0  0  0
   -3.3086    1.6325   -1.6216 N   0  0  0  0  0  0  0  0  0  0  0  0
   -3.2823    0.8496    0.5767 O   0  0  0  0  0  0  0  0  0  0  0  0
    0.7823    0.0229    0.5825 C   0  0  0  0  0  0  0  0  0  0  0  0
    1.6748   -0.5205    1.4636 C   0  0  0  0  0  0  0  0  0  0  0  0
    2.8955   -0.3587    0.9329 N   0  0  0  0  0  0  0  0  0  0  0  0
    2.8159    0.2544   -0.2286 N   0  0  0  0  0  0  0  0  0  0  0  0
    3.9643    0.5748   -1.0504 C   0  0  0  0  0  0  0  0  0  0  0  0
    1.5348    0.4835   -0.4368 N   0  0  0  0  0  0  0  0  0  0  0  0
   -0.1742   -2.3230   -0.2081 H   0  0  0  0  0  0  0  0  0  0  0  0
   -1.5010   -3.0895    0.6986 H   0  0  0  0  0  0  0  0  0  0  0  0
   -1.9002   -2.1075   -0.7201 H   0  0  0  0  0  0  0  0  0  0  0  0
   -0.9378   -1.3527    1.9712 H   0  0  0  0  0  0  0  0  0  0  0  0
   -0.9027    0.8930    1.4492 H   0  0  0  0  0  0  0  0  0  0  0  0
   -0.6914    1.6618   -0.8784 H   0  0  0  0  0  0  0  0  0  0  0  0
   -1.1340    0.0550   -1.5036 H   0  0  0  0  0  0  0  0  0  0  0  0
   -4.1185    2.2761   -1.5454 H   0  0  0  0  0  0  0  0  0  0  0  0
   -2.9594    1.3999   -2.5704 H   0  0  0  0  0  0  0  0  0  0  0  0
    1.4344   -0.9860    2.3993 H   0  0  0  0  0  0  0  0  0  0  0  0
    3.8177    1.4893   -1.6596 H   0  0  0  0  0  0  0  0  0  0  0  0
    4.2625   -0.3082   -1.6773 H   0  0  0  0  0  0  0  0  0  0  0  0
    4.8406    0.7777   -0.3676 H   0  0  0  0  0  0  0  0  0  0  0  0
  1  2  1  0
  2  3  1  0
  3  4  1  0
  4  5  1  0
  5  6  1  0
  5  7  2  0
  3  8  1  0
  8  9  1  0
  9 10  2  0
 10 11  1  0
 11 12  1  0
 11 13  1  0
 13  8  2  0
  1 14  1  0
  1 15  1  0
  1 16  1  0
  2 17  1  0
  3 18  1  1
  4 19  1  0
  4 20  1  0
  6 21  1  0
  6 22  1  0
  9 23  1  0
 12 24  1  0
 12 25  1  0
 12 26  1  0
M  END
$$$$
