
     RDKit          3D

 24 23  0  0  0  0  0  0  0  0999 V2000
   -4.7574    0.2516    1.2301 C   0  0  0  0  0  0  0  0  0  0  0  0
   -3.3606    0.1393    0.8240 N   0  0  0  0  0  0  0  0  0  0  0  0
   -2.9983    0.3962   -0.5235 C   0  0  0  0  0  0  0  0  0  0  0  0
   -3.8848    0.7181   -1.3555 O   0  0  0  0  0  0  0  0  0  0  0  0
   -1.6099    0.2996   -0.9908 C   0  0  0  0  0  0  0  0  0  0  0  0
   -0.7124   -0.0715    0.0370 O   0  0  0  0  0  0  0  0  0  0  0  0
    0.6377   -0.1831   -0.3340 C   0  0  0  0  0  0  0  0  0  0  0  0
    0.9869    0.0423   -1.5206 O   0  0  0  0  0  0  0  0  0  0  0  0
    1.6772   -0.5639    0.6453 C   0  0  0  0  0  0  0  0  0  0  0  0
    3.0008   -0.6059    0.0050 C   0  0  0  0  0  0  0  0  0  0  0  0
    3.3412   -1.5940   -0.6719 O   0  0  0  0  0  0  0  0  0  0  0  0
    3.8700    0.4499    0.1522 O   0  0  0  0  0  0  0  0  0  0  0  0
    5.1471    0.3919   -0.4749 C   0  0  0  0  0  0  0  0  0  0  0  0
   -5.3811   -0.3057    0.5017 H   0  0  0  0  0  0  0  0  0  0  0  0
   -4.9367   -0.1692    2.2221 H   0  0  0  0  0  0  0  0  0  0  0  0
   -5.0326    1.3465    1.2516 H   0  0  0  0  0  0  0  0  0  0  0  0
   -2.6490   -0.1315    1.5445 H   0  0  0  0  0  0  0  0  0  0  0  0
   -1.5189   -0.5123   -1.7709 H   0  0  0  0  0  0  0  0  0  0  0  0
   -1.2851    1.2687   -1.4183 H   0  0  0  0  0  0  0  0  0  0  0  0
    1.4996   -1.5807    1.0737 H   0  0  0  0  0  0  0  0  0  0  0  0
    1.6289    0.1896    1.4680 H   0  0  0  0  0  0  0  0  0  0  0  0
    5.5369    1.4371   -0.4783 H   0  0  0  0  0  0  0  0  0  0  0  0
    5.0102    0.0254   -1.5285 H   0  0  0  0  0  0  0  0  0  0  0  0
    5.7902   -0.2979    0.1121 H   0  0  0  0  0  0  0  0  0  0  0  0
  1  2  1  0
  2  3  1  0
  3  4  2  0
  3  5  1  0
  5  6  1  0
  6  7  1  0
  7  8  2  0
  7  9  1  0
  9 10  1  0
 10 11  2  0
 10 12  1  0
 12 13  1  0
  1 14  1  0
  1 15  1  0
  1 16  1  0
  2 17  1  0
  5 18  1  0
  5 19  1  0
  9 20  1  0
  9 21  1  0
 13 22  1  0
 13 23  1  0
 13 24  1  0
M  END
$$$$

     RDKit          3D

 24 23  0  0  0  0  0  0  0  0999 V2000
    4.3845    1.4016    0.4869 C   0  0  0  0  0  0  0  0  0  0  0  0
    3.7669    0.1075    0.2836 N   0  0  0  0  0  0  0  0  0  0  0  0
    2.4013   -0.1572    0.5689 C   0  0  0  0  0  0  0  0  0  0  0  0
    1.7358    0.8099    1.0181 O   0  0  0  0  0  0  0  0  0  0  0  0
    1.8282   -1.4854    0.3442 C   0  0  0  0  0  0  0  0  0  0  0  0
    0.4610   -1.5726    0.6803 O   0  0  0  0  0  0  0  0  0  0  0  0
   -0.5152   -0.7959    0.0799 C   0  0  0  0  0  0  0  0  0  0  0  0
   -0.1162    0.0112   -0.8011 O   0  0  0  0  0  0  0  0  0  0  0  0
   -1.9337   -0.9318    0.4742 C   0  0  0  0  0  0  0  0  0  0  0  0
   -2.7824   -0.0034   -0.3015 C   0  0  0  0  0  0  0  0  0  0  0  0
   -2.2622    0.7534   -1.1543 O   0  0  0  0  0  0  0  0  0  0  0  0
   -4.1523    0.0314   -0.0871 O   0  0  0  0  0  0  0  0  0  0  0  0
   -5.0221    0.8878   -0.7868 C   0  0  0  0  0  0  0  0  0  0  0  0
    4.0237    1.8522    1.4208 H   0  0  0  0  0  0  0  0  0  0  0  0
    5.4837    1.2790    0.5906 H   0  0  0  0  0  0  0  0  0  0  0  0
    4.2149    2.0099   -0.4134 H   0  0  0  0  0  0  0  0  0  0  0  0
    4.3341   -0.6941   -0.0929 H   0  0  0  0  0  0  0  0  0  0  0  0
    2.4360   -2.2440    0.8701 H   0  0  0  0  0  0  0  0  0  0  0  0
    1.8876   -1.7724   -0.7474 H   0  0  0  0  0  0  0  0  0  0  0  0
   -2.0349   -0.7220    1.5615 H   0  0  0  0  0  0  0  0  0  0  0  0
   -2.2447   -2.0028    0.3278 H   0  0  0  0  0  0  0  0  0  0  0  0
   -5.3228    1.7167   -0.1020 H   0  0  0  0  0  0  0  0  0  0  0  0
   -4.6234    1.2393   -1.7404 H   0  0  0  0  0  0  0  0  0  0  0  0
   -5.9477    0.2820   -1.0107 H   0  0  0  0  0  0  0  0  0  0  0  0
  1  2  1  0
  2  3  1  0
  3  4  2  0
  3  5  1  0
  5  6  1  0
  6  7  1  0
  7  8  2  0
  7  9  1  0
  9 10  1  0
 10 11  2  0
 10 12  1  0
 12 13  1  0
  1 14  1  0
  1 15  1  0
  1 16  1  0
  2 17  1  0
  5 18  1  0
  5 19  1  0
  9 20  1  0
  9 21  1  0
 13 22  1  0
 13 23  1  0
 13 24  1  0
M  END
$$$$

     RDKit          3D

 24 23  0  0  0  0  0  0  0  0999 V2000
    4.1902    1.6730    0.7317 C   0  0  0  0  0  0  0  0  0  0  0  0
    3.5081    0.4481    0.4089 N   0  0  0  0  0  0  0  0  0  0  0  0
    2.0903    0.3800    0.4458 C   0  0  0  0  0  0  0  0  0  0  0  0
    1.4407    1.4031    0.7628 O   0  0  0  0  0  0  0  0  0  0  0  0
    1.4366   -0.8800    0.1133 C   0  0  0  0  0  0  0  0  0  0  0  0
    0.0120   -0.7919    0.1975 O   0  0  0  0  0  0  0  0  0  0  0  0
   -0.7574   -1.9110   -0.0899 C   0  0  0  0  0  0  0  0  0  0  0  0
   -0.1437   -2.9595   -0.4129 O   0  0  0  0  0  0  0  0  0  0  0  0
   -2.2444   -1.9125   -0.0303 C   0  0  0  0  0  0  0  0  0  0  0  0
   -2.7945   -0.5854    0.3364 C   0  0  0  0  0  0  0  0  0  0  0  0
   -2.7795   -0.1878    1.5328 O   0  0  0  0  0  0  0  0  0  0  0  0
   -3.3494    0.2828   -0.5925 O   0  0  0  0  0  0  0  0  0  0  0  0
   -3.8815    1.5524   -0.2637 C   0  0  0  0  0  0  0  0  0  0  0  0
    4.2830    2.2965   -0.1835 H   0  0  0  0  0  0  0  0  0  0  0  0
    3.6494    2.2855    1.4797 H   0  0  0  0  0  0  0  0  0  0  0  0
    5.2444    1.4627    1.0661 H   0  0  0  0  0  0  0  0  0  0  0  0
    4.1058   -0.3780    0.1486 H   0  0  0  0  0  0  0  0  0  0  0  0
    1.6456   -1.1293   -0.9581 H   0  0  0  0  0  0  0  0  0  0  0  0
    1.7861   -1.7349    0.7161 H   0  0  0  0  0  0  0  0  0  0  0  0
   -2.7065   -2.2915   -0.9719 H   0  0  0  0  0  0  0  0  0  0  0  0
   -2.5487   -2.6677    0.7488 H   0  0  0  0  0  0  0  0  0  0  0  0
   -3.9612    1.7188    0.8356 H   0  0  0  0  0  0  0  0  0  0  0  0
   -3.2944    2.3179   -0.7904 H   0  0  0  0  0  0  0  0  0  0  0  0
   -4.9310    1.6087   -0.6655 H   0  0  0  0  0  0  0  0  0  0  0  0
  1  2  1  0
  2  3  1  0
  3  4  2  0
  3  5  1  0
  5  6  1  0
  6  7  1  0
  7  8  2  0
  7  9  1  0
  9 10  1  0
 10 11  2  0
 10 12  1  0
 12 13  1  0
  1 14  1  0
  1 15  1  0
  1 16  1  0
  2 17  1  0
  5 18  1  0
  5 19  1  0
  9 20  1  0
  9 21  1  0
 13 22  1  0
 13 23  1  0
 13 24  1  0
M  END
$$$$

     RDKit          3D

 24 23  0  0  0  0  0  0  0  0999 V2000
    4.5369    0.7702    1.1073 C   0  0  0  0  0  0  0  0  0  0  0  0
    3.6695    0.4807   -0.0359 N   0  0  0  0  0  0  0  0  0  0  0  0
    2.2805    0.2844    0.1807 C   0  0  0  0  0  0  0  0  0  0  0  0
    1.8444    0.3676    1.3582 O   0  0  0  0  0  0  0  0  0  0  0  0
    1.3657   -0.0111   -0.9504 C   0  0  0  0  0  0  0  0  0  0  0  0
    0.0406   -0.1732   -0.5519 O   0  0  0  0  0  0  0  0  0  0  0  0
   -0.3926   -1.1380    0.3407 C   0  0  0  0  0  0  0  0  0  0  0  0
    0.4696   -1.9106    0.8156 O   0  0  0  0  0  0  0  0  0  0  0  0
   -1.7949   -1.3032    0.7571 C   0  0  0  0  0  0  0  0  0  0  0  0
   -2.7018   -0.3298    0.1222 C   0  0  0  0  0  0  0  0  0  0  0  0
   -2.2106    0.5070   -0.6758 O   0  0  0  0  0  0  0  0  0  0  0  0
   -4.0634   -0.2854    0.3552 O   0  0  0  0  0  0  0  0  0  0  0  0
   -4.9335    0.6490   -0.2545 C   0  0  0  0  0  0  0  0  0  0  0  0
    5.5846    0.4985    0.8891 H   0  0  0  0  0  0  0  0  0  0  0  0
    4.4599    1.8650    1.2776 H   0  0  0  0  0  0  0  0  0  0  0  0
    4.1646    0.2803    2.0247 H   0  0  0  0  0  0  0  0  0  0  0  0
    4.0737    0.4189   -1.0102 H   0  0  0  0  0  0  0  0  0  0  0  0
    1.4017    0.8563   -1.6565 H   0  0  0  0  0  0  0  0  0  0  0  0
    1.7951   -0.8658   -1.4965 H   0  0  0  0  0  0  0  0  0  0  0  0
   -1.9150   -1.2779    1.8712 H   0  0  0  0  0  0  0  0  0  0  0  0
   -2.1196   -2.3426    0.4620 H   0  0  0  0  0  0  0  0  0  0  0  0
   -4.8507    1.6531    0.2269 H   0  0  0  0  0  0  0  0  0  0  0  0
   -5.9651    0.2429   -0.1622 H   0  0  0  0  0  0  0  0  0  0  0  0
   -4.7398    0.7637   -1.3431 H   0  0  0  0  0  0  0  0  0  0  0  0
  1  2  1  0
  2  3  1  0
  3  4  2  0
  3  5  1  0
  5  6  1  0
  6  7  1  0
  7  8  2  0
  7  9  1  0
  9 10  1  0
 10 11  2  0
 10 12  1  0
 12 13  1  0
  1 14  1  0
  1 15  1  0
  1 16  1  0
  2 17  1  0
  5 18  1  0
  5 19  1  0
  9 20  1  0
  9 21  1  0
 13 22  1  0
 13 23  1  0
 13 24  1  0
M  END
$$$$

     RDKit          3D

 24 23  0  0  0  0  0  0  0  0999 V2000
   -4.0598    1.4945    0.5126 C   0  0  0  0  0  0  0  0  0  0  0  0
   -2.9076    0.6459    0.3543 N   0  0  0  0  0  0  0  0  0  0  0  0
   -2.9112   -0.5375   -0.4260 C   0  0  0  0  0  0  0  0  0  0  0  0
   -3.9617   -0.8794   -1.0170 O   0  0  0  0  0  0  0  0  0  0  0  0
   -1.6756   -1.3579   -0.5362 C   0  0  0  0  0  0  0  0  0  0  0  0
   -0.6212   -0.7848    0.2202 O   0  0  0  0  0  0  0  0  0  0  0  0
    0.6149   -1.4174    0.2288 C   0  0  0  0  0  0  0  0  0  0  0  0
    0.8155   -2.4809   -0.4162 O   0  0  0  0  0  0  0  0  0  0  0  0
    1.7690   -0.8809    0.9968 C   0  0  0  0  0  0  0  0  0  0  0  0
    2.6531   -0.1049    0.0676 C   0  0  0  0  0  0  0  0  0  0  0  0
    2.3410   -0.0040   -1.1618 O   0  0  0  0  0  0  0  0  0  0  0  0
    3.8050    0.5110    0.4989 O   0  0  0  0  0  0  0  0  0  0  0  0
    4.5854    1.2224   -0.4255 C   0  0  0  0  0  0  0  0  0  0  0  0
   -4.9549    0.8702    0.7872 H   0  0  0  0  0  0  0  0  0  0  0  0
   -4.3050    2.0265   -0.4231 H   0  0  0  0  0  0  0  0  0  0  0  0
   -3.9276    2.2367    1.3050 H   0  0  0  0  0  0  0  0  0  0  0  0
   -2.0283    0.9256    0.8438 H   0  0  0  0  0  0  0  0  0  0  0  0
   -1.3533   -1.4600   -1.6156 H   0  0  0  0  0  0  0  0  0  0  0  0
   -1.8848   -2.3538   -0.1052 H   0  0  0  0  0  0  0  0  0  0  0  0
    1.4223   -0.2207    1.8143 H   0  0  0  0  0  0  0  0  0  0  0  0
    2.3717   -1.7342    1.3995 H   0  0  0  0  0  0  0  0  0  0  0  0
    5.6428    1.2887   -0.1432 H   0  0  0  0  0  0  0  0  0  0  0  0
    4.1281    2.2487   -0.4971 H   0  0  0  0  0  0  0  0  0  0  0  0
    4.4420    0.7459   -1.4375 H   0  0  0  0  0  0  0  0  0  0  0  0
  1  2  1  0
  2  3  1  0
  3  4  2  0
  3  5  1  0
  5  6  1  0
  6  7  1  0
  7  8  2  0
  7  9  1  0
  9 10  1  0
 10 11  2  0
 10 12  1  0
 12 13  1  0
  1 14  1  0
  1 15  1  0
  1 16  1  0
  2 17  1  0
  5 18  1  0
  5 19  1  0
  9 20  1  0
  9 21  1  0
 13 22  1  0
 13 23  1  0
 13 24  1  0
M  END
$$$$

     RDKit          3D

 24 23  0  0  0  0  0  0  0  0999 V2000
   -3.2946   -1.4557    1.0151 C   0  0  0  0  0  0  0  0  0  0  0  0
   -2.4769   -0.3103    0.5865 N   0  0  0  0  0  0  0  0  0  0  0  0
   -2.8793    0.4779   -0.4963 C   0  0  0  0  0  0  0  0  0  0  0  0
   -3.9411    0.2330   -1.1197 O   0  0  0  0  0  0  0  0  0  0  0  0
   -2.0764    1.6278   -0.9482 C   0  0  0  0  0  0  0  0  0  0  0  0
   -0.8379    1.7720   -0.2917 O   0  0  0  0  0  0  0  0  0  0  0  0
    0.1825    0.8383   -0.3638 C   0  0  0  0  0  0  0  0  0  0  0  0
   -0.0122   -0.1842   -1.0584 O   0  0  0  0  0  0  0  0  0  0  0  0
    1.4739    1.0602    0.3728 C   0  0  0  0  0  0  0  0  0  0  0  0
    2.3981   -0.0557    0.1479 C   0  0  0  0  0  0  0  0  0  0  0  0
    2.1304   -1.0581   -0.5694 O   0  0  0  0  0  0  0  0  0  0  0  0
    3.6397   -0.0278    0.7469 O   0  0  0  0  0  0  0  0  0  0  0  0
    4.6157   -1.0291    0.6140 C   0  0  0  0  0  0  0  0  0  0  0  0
   -4.0063   -1.0712    1.7636 H   0  0  0  0  0  0  0  0  0  0  0  0
   -3.8408   -1.8124    0.1131 H   0  0  0  0  0  0  0  0  0  0  0  0
   -2.5949   -2.2142    1.4104 H   0  0  0  0  0  0  0  0  0  0  0  0
   -1.6011   -0.0814    1.0988 H   0  0  0  0  0  0  0  0  0  0  0  0
   -1.9467    1.5532   -2.0490 H   0  0  0  0  0  0  0  0  0  0  0  0
   -2.6933    2.5588   -0.7758 H   0  0  0  0  0  0  0  0  0  0  0  0
    1.1905    1.0586    1.4609 H   0  0  0  0  0  0  0  0  0  0  0  0
    1.8937    2.0542    0.1070 H   0  0  0  0  0  0  0  0  0  0  0  0
    4.1554   -1.9185    0.1637 H   0  0  0  0  0  0  0  0  0  0  0  0
    5.4621   -0.6732   -0.0343 H   0  0  0  0  0  0  0  0  0  0  0  0
    5.0597   -1.3421    1.5794 H   0  0  0  0  0  0  0  0  0  0  0  0
  1  2  1  0
  2  3  1  0
  3  4  2  0
  3  5  1  0
  5  6  1  0
  6  7  1  0
  7  8  2  0
  7  9  1  0
  9 10  1  0
 10 11  2  0
 10 12  1  0
 12 13  1  0
  1 14  1  0
  1 15  1  0
  1 16  1  0
  2 17  1  0
  5 18  1  0
  5 19  1  0
  9 20  1  0
  9 21  1  0
 13 22  1  0
 13 23  1  0
 13 24  1  0
M  END
$$$$

     RDKit          3D

 24 23  0  0  0  0  0  0  0  0999 V2000
    4.1682    1.7464   -0.6127 C   0  0  0  0  0  0  0  0  0  0  0  0
    3.4932    0.5557   -0.0774 N   0  0  0  0  0  0  0  0  0  0  0  0
    2.0934    0.3727   -0.1827 C   0  0  0  0  0  0  0  0  0  0  0  0
    1.3717    1.2238   -0.7404 O   0  0  0  0  0  0  0  0  0  0  0  0
    1.4425   -0.8462    0.3710 C   0  0  0  0  0  0  0  0  0  0  0  0
    0.0340   -0.8064    0.1812 O   0  0  0  0  0  0  0  0  0  0  0  0
   -0.7550   -1.8357    0.6229 C   0  0  0  0  0  0  0  0  0  0  0  0
   -0.1943   -2.8000    1.1897 O   0  0  0  0  0  0  0  0  0  0  0  0
   -2.2558   -1.8225    0.4447 C   0  0  0  0  0  0  0  0  0  0  0  0
   -2.6884   -0.6315   -0.2805 C   0  0  0  0  0  0  0  0  0  0  0  0
   -2.2367   -0.3909   -1.4181 O   0  0  0  0  0  0  0  0  0  0  0  0
   -3.6078    0.2393    0.3031 O   0  0  0  0  0  0  0  0  0  0  0  0
   -3.9959    1.3789   -0.4409 C   0  0  0  0  0  0  0  0  0  0  0  0
    3.5745    2.2113   -1.4086 H   0  0  0  0  0  0  0  0  0  0  0  0
    5.1402    1.3846   -1.0083 H   0  0  0  0  0  0  0  0  0  0  0  0
    4.3781    2.4379    0.2307 H   0  0  0  0  0  0  0  0  0  0  0  0
    4.0361   -0.1878    0.4008 H   0  0  0  0  0  0  0  0  0  0  0  0
    1.6760   -0.8633    1.4779 H   0  0  0  0  0  0  0  0  0  0  0  0
    1.9007   -1.7829   -0.0072 H   0  0  0  0  0  0  0  0  0  0  0  0
   -2.6763   -1.8293    1.4715 H   0  0  0  0  0  0  0  0  0  0  0  0
   -2.5169   -2.7823   -0.0482 H   0  0  0  0  0  0  0  0  0  0  0  0
   -5.1189    1.4094   -0.4319 H   0  0  0  0  0  0  0  0  0  0  0  0
   -3.6439    2.2869    0.1081 H   0  0  0  0  0  0  0  0  0  0  0  0
   -3.6185    1.3317   -1.4758 H   0  0  0  0  0  0  0  0  0  0  0  0
  1  2  1  0
  2  3  1  0
  3  4  2  0
  3  5  1  0
  5  6  1  0
  6  7  1  0
  7  8  2  0
  7  9  1  0
  9 10  1  0
 10 11  2  0
 10 12  1  0
 12 13  1  0
  1 14  1  0
  1 15  1  0
  1 16  1  0
  2 17  1  0
  5 18  1  0
  5 19  1  0
  9 20  1  0
  9 21  1  0
 13 22  1  0
 13 23  1  0
 13 24  1  0
M  END
$$$$

     RDKit          3D

 24 23  0  0  0  0  0  0  0  0999 V2000
    4.5586    1.7141    0.1682 C   0  0  0  0  0  0  0  0  0  0  0  0
    3.4334    1.0852    0.8485 N   0  0  0  0  0  0  0  0  0  0  0  0
    2.3837    0.4310    0.1550 C   0  0  0  0  0  0  0  0  0  0  0  0
    2.4533    0.4084   -1.1003 O   0  0  0  0  0  0  0  0  0  0  0  0
    1.2299   -0.2140    0.8619 C   0  0  0  0  0  0  0  0  0  0  0  0
    0.3306   -0.7920   -0.0425 O   0  0  0  0  0  0  0  0  0  0  0  0
   -0.7886   -1.4255    0.4572 C   0  0  0  0  0  0  0  0  0  0  0  0
   -0.9497   -1.4559    1.6957 O   0  0  0  0  0  0  0  0  0  0  0  0
   -1.8015   -2.0672   -0.4152 C   0  0  0  0  0  0  0  0  0  0  0  0
   -3.0032   -1.1770   -0.4253 C   0  0  0  0  0  0  0  0  0  0  0  0
   -3.9850   -1.5167   -1.1108 O   0  0  0  0  0  0  0  0  0  0  0  0
   -3.0391    0.0043    0.3078 O   0  0  0  0  0  0  0  0  0  0  0  0
   -4.1747    0.8237    0.2866 C   0  0  0  0  0  0  0  0  0  0  0  0
    4.5332    2.7852    0.3532 H   0  0  0  0  0  0  0  0  0  0  0  0
    4.4985    1.5223   -0.9206 H   0  0  0  0  0  0  0  0  0  0  0  0
    5.5302    1.3312    0.5849 H   0  0  0  0  0  0  0  0  0  0  0  0
    3.3751    1.1045    1.8897 H   0  0  0  0  0  0  0  0  0  0  0  0
    0.6688    0.5838    1.4118 H   0  0  0  0  0  0  0  0  0  0  0  0
    1.6070   -0.9801    1.5694 H   0  0  0  0  0  0  0  0  0  0  0  0
   -2.1032   -3.0041    0.0868 H   0  0  0  0  0  0  0  0  0  0  0  0
   -1.4088   -2.2436   -1.4408 H   0  0  0  0  0  0  0  0  0  0  0  0
   -5.0431    0.1947   -0.0228 H   0  0  0  0  0  0  0  0  0  0  0  0
   -3.9923    1.6635   -0.4200 H   0  0  0  0  0  0  0  0  0  0  0  0
   -4.3131    1.2242    1.3143 H   0  0  0  0  0  0  0  0  0  0  0  0
  1  2  1  0
  2  3  1  0
  3  4  2  0
  3  5  1  0
  5  6  1  0
  6  7  1  0
  7  8  2  0
  7  9  1  0
  9 10  1  0
 10 11  2  0
 10 12  1  0
 12 13  1  0
  1 14  1  0
  1 15  1  0
  1 16  1  0
  2 17  1  0
  5 18  1  0
  5 19  1  0
  9 20  1  0
  9 21  1  0
 13 22  1  0
 13 23  1  0
 13 24  1  0
M  END
$$$$
