
     RDKit          3D

 18 17  0  0  0  0  0  0  0  0999 V2000
    2.6048    0.3418    2.4574 O   0  0  0  0  0  0  0  0  0  0  0  0
    2.7741    0.1805    1.2381 N   0  0  0  0  0  4  0  0  0  0  0  0
    3.9440   -0.3306    0.7497 O   0  0  0  0  0  1  0  0  0  0  0  0
    1.7555    0.5288    0.3914 O   0  0  0  0  0  0  0  0  0  0  0  0
    1.1449   -0.5243   -0.3409 C   0  0  0  0  0  0  0  0  0  0  0  0
    0.0376   -0.0039   -1.2361 C   0  0  0  0  0  0  0  0  0  0  0  0
   -0.4995   -1.0998   -1.9109 O   0  0  0  0  0  0  0  0  0  0  0  0
   -1.0795    0.6030   -0.4205 C   0  0  0  0  0  0  0  0  0  0  0  0
   -1.5481   -0.3660    0.4785 O   0  0  0  0  0  0  0  0  0  0  0  0
   -2.5577   -0.1745    1.3780 N   0  0  0  0  0  4  0  0  0  0  0  0
   -2.3684    0.6457    2.3074 O   0  0  0  0  0  0  0  0  0  0  0  0
   -3.7676   -0.8484    1.2975 O   0  0  0  0  0  1  0  0  0  0  0  0
    0.7632   -1.2622    0.3831 H   0  0  0  0  0  0  0  0  0  0  0  0
    1.9293   -0.9737   -0.9843 H   0  0  0  0  0  0  0  0  0  0  0  0
    0.4031    0.7832   -1.9231 H   0  0  0  0  0  0  0  0  0  0  0  0
   -0.8514   -0.7760   -2.7964 H   0  0  0  0  0  0  0  0  0  0  0  0
   -1.8962    0.8485   -1.1409 H   0  0  0  0  0  0  0  0  0  0  0  0
   -0.7882    1.5514    0.0721 H   0  0  0  0  0  0  0  0  0  0  0  0
  1  2  2  0
  2  3  1  0
  2  4  1  0
  4  5  1  0
  5  6  1  0
  6  7  1  0
  6  8  1  0
  8  9  1  0
  9 10  1  0
 10 11  2  0
 10 12  1  0
  5 13  1  0
  5 14  1  0
  6 15  1  0
  7 16  1  0
  8 17  1  0
  8 18  1  0
M  CHG  4   2   1   3  -1  10   1  12  -1
M  END
$$$$

     RDKit          3D

 18 17  0  0  0  0  0  0  0  0999 V2000
   -4.0420    0.5493   -1.3161 O   0  0  0  0  0  0  0  0  0  0  0  0
   -3.3720    0.4553   -0.2691 N   0  0  0  0  0  4  0  0  0  0  0  0
   -3.8106    1.1196    0.8505 O   0  0  0  0  0  1  0  0  0  0  0  0
   -2.2422   -0.2970   -0.2817 O   0  0  0  0  0  0  0  0  0  0  0  0
   -0.9700    0.1531    0.0978 C   0  0  0  0  0  0  0  0  0  0  0  0
    0.0209   -0.9918   -0.0605 C   0  0  0  0  0  0  0  0  0  0  0  0
   -0.3117   -2.0743    0.7207 O   0  0  0  0  0  0  0  0  0  0  0  0
    1.3995   -0.4721    0.3691 C   0  0  0  0  0  0  0  0  0  0  0  0
    1.6835    0.6227   -0.4556 O   0  0  0  0  0  0  0  0  0  0  0  0
    2.8122    1.3799   -0.4105 N   0  0  0  0  0  4  0  0  0  0  0  0
    3.9427    0.9487   -0.1517 O   0  0  0  0  0  0  0  0  0  0  0  0
    2.6630    2.7396   -0.6786 O   0  0  0  0  0  1  0  0  0  0  0  0
   -0.6746    1.0288   -0.4996 H   0  0  0  0  0  0  0  0  0  0  0  0
   -0.9708    0.4305    1.1679 H   0  0  0  0  0  0  0  0  0  0  0  0
    0.1195   -1.2320   -1.1418 H   0  0  0  0  0  0  0  0  0  0  0  0
    0.2652   -2.8357    0.4121 H   0  0  0  0  0  0  0  0  0  0  0  0
    1.3618   -0.2036    1.4389 H   0  0  0  0  0  0  0  0  0  0  0  0
    2.1256   -1.3209    0.2083 H   0  0  0  0  0  0  0  0  0  0  0  0
  1  2  2  0
  2  3  1  0
  2  4  1  0
  4  5  1  0
  5  6  1  0
  6  7  1  0
  6  8  1  0
  8  9  1  0
  9 10  1  0
 10 11  2  0
 10 12  1  0
  5 13  1  0
  5 14  1  0
  6 15  1  0
  7 16  1  0
  8 17  1  0
  8 18  1  0
M  CHG  4   2   1   3  -1  10   1  12  -1
M  END
$$$$

     RDKit          3D

 18 17  0  0  0  0  0  0  0  0999 V2000
   -2.6899    2.2751    0.0434 O   0  0  0  0  0  0  0  0  0  0  0  0
   -2.6867    1.0127    0.1112 N   0  0  0  0  0  4  0  0  0  0  0  0
   -3.1892    0.4631    1.2282 O   0  0  0  0  0  1  0  0  0  0  0  0
   -2.1954    0.3222   -1.0073 O   0  0  0  0  0  0  0  0  0  0  0  0
   -1.3477   -0.7605   -0.5625 C   0  0  0  0  0  0  0  0  0  0  0  0
    0.0331   -0.3136   -0.6560 C   0  0  0  0  0  0  0  0  0  0  0  0
    0.8436   -0.5984   -1.7101 O   0  0  0  0  0  0  0  0  0  0  0  0
    0.7556   -0.4082    0.7156 C   0  0  0  0  0  0  0  0  0  0  0  0
    1.4871    0.8058    0.6285 O   0  0  0  0  0  0  0  0  0  0  0  0
    2.7830    0.8308    0.7552 N   0  0  0  0  0  4  0  0  0  0  0  0
    3.4728   -0.2689    0.6211 O   0  0  0  0  0  0  0  0  0  0  0  0
    3.5334    1.8865    1.1595 O   0  0  0  0  0  1  0  0  0  0  0  0
   -1.7279   -1.2049    0.3311 H   0  0  0  0  0  0  0  0  0  0  0  0
   -1.4376   -1.5389   -1.4188 H   0  0  0  0  0  0  0  0  0  0  0  0
   -0.0582    0.8755   -0.8220 H   0  0  0  0  0  0  0  0  0  0  0  0
    1.0130   -1.6162   -1.5975 H   0  0  0  0  0  0  0  0  0  0  0  0
    1.3981   -1.2997    0.6736 H   0  0  0  0  0  0  0  0  0  0  0  0
    0.0128   -0.4622    1.5068 H   0  0  0  0  0  0  0  0  0  0  0  0
  1  2  2  0
  2  3  1  0
  2  4  1  0
  4  5  1  0
  5  6  1  0
  6  7  1  0
  6  8  1  0
  8  9  1  0
  9 10  1  0
 10 11  2  0
 10 12  1  0
  5 13  1  0
  5 14  1  0
  6 15  1  0
  7 16  1  0
  8 17  1  0
  8 18  1  0
M  CHG  4   2   1   3  -1  10   1  12  -1
M  END
$$$$

     RDKit          3D

 18 17  0  0  0  0  0  0  0  0999 V2000
    4.1123   -0.1338    0.7058 O   0  0  0  0  0  0  0  0  0  0  0  0
    3.1488    0.5962    0.4511 N   0  0  0  0  0  4  0  0  0  0  0  0
    3.3528    1.8997    0.1121 O   0  0  0  0  0  1  0  0  0  0  0  0
    1.8743    0.1146    0.5040 O   0  0  0  0  0  0  0  0  0  0  0  0
    1.2744   -0.3004   -0.7043 C   0  0  0  0  0  0  0  0  0  0  0  0
   -0.1338   -0.8097   -0.4963 C   0  0  0  0  0  0  0  0  0  0  0  0
   -0.2036   -1.8838    0.3462 O   0  0  0  0  0  0  0  0  0  0  0  0
   -0.9636    0.3162    0.1354 C   0  0  0  0  0  0  0  0  0  0  0  0
   -2.2968   -0.1633    0.2643 O   0  0  0  0  0  0  0  0  0  0  0  0
   -3.2115    0.6890    0.8101 N   0  0  0  0  0  4  0  0  0  0  0  0
   -3.9765    1.3178    0.0708 O   0  0  0  0  0  0  0  0  0  0  0  0
   -3.2522    0.8207    2.1668 O   0  0  0  0  0  1  0  0  0  0  0  0
    1.8480   -1.1547   -1.1579 H   0  0  0  0  0  0  0  0  0  0  0  0
    1.2776    0.5680   -1.3834 H   0  0  0  0  0  0  0  0  0  0  0  0
   -0.6340   -1.0337   -1.4584 H   0  0  0  0  0  0  0  0  0  0  0  0
   -0.7816   -2.6053   -0.0038 H   0  0  0  0  0  0  0  0  0  0  0  0
   -0.8876    1.2373   -0.4453 H   0  0  0  0  0  0  0  0  0  0  0  0
   -0.5470    0.5252    1.1437 H   0  0  0  0  0  0  0  0  0  0  0  0
  1  2  2  0
  2  3  1  0
  2  4  1  0
  4  5  1  0
  5  6  1  0
  6  7  1  0
  6  8  1  0
  8  9  1  0
  9 10  1  0
 10 11  2  0
 10 12  1  0
  5 13  1  0
  5 14  1  0
  6 15  1  0
  7 16  1  0
  8 17  1  0
  8 18  1  0
M  CHG  4   2   1   3  -1  10   1  12  -1
M  END
$$$$

     RDKit          3D

 18 17  0  0  0  0  0  0  0  0999 V2000
   -3.8509    0.4049   -0.3696 O   0  0  0  0  0  0  0  0  0  0  0  0
   -3.2297   -0.6050   -0.0275 N   0  0  0  0  0  4  0  0  0  0  0  0
   -3.8479   -1.8198   -0.0174 O   0  0  0  0  0  1  0  0  0  0  0  0
   -1.9215   -0.5330    0.3458 O   0  0  0  0  0  0  0  0  0  0  0  0
   -1.2521    0.6835    0.3300 C   0  0  0  0  0  0  0  0  0  0  0  0
    0.1858    0.5915    0.7703 C   0  0  0  0  0  0  0  0  0  0  0  0
    0.8002    1.8409    0.7332 O   0  0  0  0  0  0  0  0  0  0  0  0
    0.9984   -0.3189   -0.1284 C   0  0  0  0  0  0  0  0  0  0  0  0
    2.3089   -0.3370    0.4282 O   0  0  0  0  0  0  0  0  0  0  0  0
    3.3069   -1.0642   -0.1348 N   0  0  0  0  0  4  0  0  0  0  0  0
    4.4954   -0.8159    0.1435 O   0  0  0  0  0  0  0  0  0  0  0  0
    2.9738   -2.0703   -1.0101 O   0  0  0  0  0  1  0  0  0  0  0  0
   -1.7856    1.4377    0.9416 H   0  0  0  0  0  0  0  0  0  0  0  0
   -1.2597    1.0703   -0.7221 H   0  0  0  0  0  0  0  0  0  0  0  0
    0.2081    0.1580    1.7757 H   0  0  0  0  0  0  0  0  0  0  0  0
    0.2127    2.5720    1.0514 H   0  0  0  0  0  0  0  0  0  0  0  0
    0.5553   -1.3335   -0.1869 H   0  0  0  0  0  0  0  0  0  0  0  0
    1.1018    0.1387   -1.1550 H   0  0  0  0  0  0  0  0  0  0  0  0
  1  2  2  0
  2  3  1  0
  2  4  1  0
  4  5  1  0
  5  6  1  0
  6  7  1  0
  6  8  1  0
  8  9  1  0
  9 10  1  0
 10 11  2  0
 10 12  1  0
  5 13  1  0
  5 14  1  0
  6 15  1  0
  7 16  1  0
  8 17  1  0
  8 18  1  0
M  CHG  4   2   1   3  -1  10   1  12  -1
M  END
$$$$

     RDKit          3D

 18 17  0  0  0  0  0  0  0  0999 V2000
   -2.2857   -1.8419    1.6023 O   0  0  0  0  0  0  0  0  0  0  0  0
   -2.6027   -0.7023    1.2097 N   0  0  0  0  0  4  0  0  0  0  0  0
   -3.9410   -0.3910    1.2284 O   0  0  0  0  0  1  0  0  0  0  0  0
   -1.7065    0.2417    0.7677 O   0  0  0  0  0  0  0  0  0  0  0  0
   -1.1539    0.0534   -0.5116 C   0  0  0  0  0  0  0  0  0  0  0  0
   -0.1877    1.1347   -0.9050 C   0  0  0  0  0  0  0  0  0  0  0  0
    0.2896    0.8411   -2.1807 O   0  0  0  0  0  0  0  0  0  0  0  0
    0.9855    1.2543    0.0245 C   0  0  0  0  0  0  0  0  0  0  0  0
    1.7217    0.0408    0.0651 O   0  0  0  0  0  0  0  0  0  0  0  0
    2.8343   -0.1345    0.8248 N   0  0  0  0  0  4  0  0  0  0  0  0
    3.4444    0.7952    1.3921 O   0  0  0  0  0  0  0  0  0  0  0  0
    3.3214   -1.4125    0.9809 O   0  0  0  0  0  1  0  0  0  0  0  0
   -1.9963    0.0904   -1.2355 H   0  0  0  0  0  0  0  0  0  0  0  0
   -0.6991   -0.9498   -0.5525 H   0  0  0  0  0  0  0  0  0  0  0  0
   -0.7202    2.1051   -0.9735 H   0  0  0  0  0  0  0  0  0  0  0  0
    0.3224   -0.1338   -2.3586 H   0  0  0  0  0  0  0  0  0  0  0  0
    0.7028    1.6134    1.0320 H   0  0  0  0  0  0  0  0  0  0  0  0
    1.6710    2.0131   -0.4102 H   0  0  0  0  0  0  0  0  0  0  0  0
  1  2  2  0
  2  3  1  0
  2  4  1  0
  4  5  1  0
  5  6  1  0
  6  7  1  0
  6  8  1  0
  8  9  1  0
  9 10  1  0
 10 11  2  0
 10 12  1  0
  5 13  1  0
  5 14  1  0
  6 15  1  0
  7 16  1  0
  8 17  1  0
  8 18  1  0
M  CHG  4   2   1   3  -1  10   1  12  -1
M  END
$$$$

     RDKit          3D

 18 17  0  0  0  0  0  0  0  0999 V2000
    3.9846    0.9553   -1.0498 O   0  0  0  0  0  0  0  0  0  0  0  0
    3.3675    0.3671   -0.0903 N   0  0  0  0  0  4  0  0  0  0  0  0
    3.8370    0.4466    1.1566 O   0  0  0  0  0  1  0  0  0  0  0  0
    2.1867   -0.1622   -0.3694 O   0  0  0  0  0  0  0  0  0  0  0  0
    1.1077   -0.3921    0.6071 C   0  0  0  0  0  0  0  0  0  0  0  0
    0.0034    0.5453   -0.0501 C   0  0  0  0  0  0  0  0  0  0  0  0
    0.6536    0.7470   -1.3416 O   0  0  0  0  0  0  0  0  0  0  0  0
   -1.2416   -0.1014   -0.3787 C   0  0  0  0  0  0  0  0  0  0  0  0
   -2.2504    0.0793    0.6422 O   0  0  0  0  0  0  0  0  0  0  0  0
   -3.5005   -0.3148    0.2200 N   0  0  0  0  0  4  0  0  0  0  0  0
   -4.3228    0.6043    0.0508 O   0  0  0  0  0  0  0  0  0  0  0  0
   -3.8108   -1.5731   -0.1375 O   0  0  0  0  0  1  0  0  0  0  0  0
    1.4769    0.0154    1.5130 H   0  0  0  0  0  0  0  0  0  0  0  0
    0.8364   -1.4239    0.5604 H   0  0  0  0  0  0  0  0  0  0  0  0
   -0.0191    1.4968    0.5015 H   0  0  0  0  0  0  0  0  0  0  0  0
    0.4413   -0.0129   -1.8541 H   0  0  0  0  0  0  0  0  0  0  0  0
   -1.6992   -0.0261   -1.3565 H   0  0  0  0  0  0  0  0  0  0  0  0
   -1.0508   -1.2506   -0.2808 H   0  0  0  0  0  0  0  0  0  0  0  0
  1  2  2  0
  2  3  1  0
  2  4  1  0
  4  5  1  0
  5  6  1  0
  6  7  1  0
  6  8  1  0
  8  9  1  0
  9 10  1  0
 10 11  2  0
 10 12  1  0
  5 13  1  0
  5 14  1  0
  6 15  1  0
  7 16  1  0
  8 17  1  0
  8 18  1  0
M  CHG  4   2   1   3  -1  10   1  12  -1
M  END
$$$$

     RDKit          3D

 18 17  0  0  0  0  0  0  0  0999 V2000
    3.7884    1.2660    0.2390 O   0  0  0  0  0  0  0  0  0  0  0  0
    3.3830    0.1294    0.5303 N   0  0  0  0  0  4  0  0  0  0  0  0
    3.9272   -0.5906    1.5544 O   0  0  0  0  0  1  0  0  0  0  0  0
    2.3618   -0.4052   -0.2032 O   0  0  0  0  0  0  0  0  0  0  0  0
    1.0420   -0.0489    0.1654 C   0  0  0  0  0  0  0  0  0  0  0  0
    0.0155   -0.7070   -0.7234 C   0  0  0  0  0  0  0  0  0  0  0  0
    0.1663   -2.0859   -0.6034 O   0  0  0  0  0  0  0  0  0  0  0  0
   -1.3611   -0.3043   -0.2764 C   0  0  0  0  0  0  0  0  0  0  0  0
   -1.5717    1.0880   -0.3765 O   0  0  0  0  0  0  0  0  0  0  0  0
   -2.7772    1.6308   -0.0091 N   0  0  0  0  0  4  0  0  0  0  0  0
   -2.9476    2.8514    0.0049 O   0  0  0  0  0  0  0  0  0  0  0  0
   -3.8159    0.8063    0.3503 O   0  0  0  0  0  1  0  0  0  0  0  0
    0.9842    1.0617    0.1129 H   0  0  0  0  0  0  0  0  0  0  0  0
    0.9152   -0.3708    1.2192 H   0  0  0  0  0  0  0  0  0  0  0  0
    0.1402   -0.4130   -1.7683 H   0  0  0  0  0  0  0  0  0  0  0  0
   -0.6463   -2.5228   -0.2335 H   0  0  0  0  0  0  0  0  0  0  0  0
   -2.1702   -0.8079   -0.7993 H   0  0  0  0  0  0  0  0  0  0  0  0
   -1.4339   -0.5772    0.8165 H   0  0  0  0  0  0  0  0  0  0  0  0
  1  2  2  0
  2  3  1  0
  2  4  1  0
  4  5  1  0
  5  6  1  0
  6  7  1  0
  6  8  1  0
  8  9  1  0
  9 10  1  0
 10 11  2  0
 10 12  1  0
  5 13  1  0
  5 14  1  0
  6 15  1  0
  7 16  1  0
  8 17  1  0
  8 18  1  0
M  CHG  4   2   1   3  -1  10   1  12  -1
M  END
$$$$
