
     RDKit          3D

 20 19  0  0  0  0  0  0  0  0999 V2000
   -2.9664   -0.5689   -0.3136 C   0  0  0  0  0  0  0  0  0  0  0  0
   -1.7854   -0.0983    0.2857 O   0  0  0  0  0  0  0  0  0  0  0  0
   -0.9174    0.7049   -0.4276 C   0  0  0  0  0  0  0  0  0  0  0  0
   -1.1708    1.0178   -1.6003 O   0  0  0  0  0  0  0  0  0  0  0  0
    0.3123    1.1688    0.2619 C   0  0  2  0  0  0  0  0  0  0  0  0
    1.1466    1.9959   -0.5630 N   0  0  0  0  0  0  0  0  0  0  0  0
    1.0721   -0.0553    0.7002 C   0  0  0  0  0  0  0  0  0  0  0  0
    1.4291   -0.8873   -0.4781 C   0  0  0  0  0  0  0  0  0  0  0  0
    2.1519   -2.0832   -0.2301 N   0  0  0  0  0  0  0  0  0  0  0  0
    1.0859   -0.5105   -1.6259 O   0  0  0  0  0  0  0  0  0  0  0  0
   -3.4923    0.1874   -0.9177 H   0  0  0  0  0  0  0  0  0  0  0  0
   -3.6533   -0.8528    0.5330 H   0  0  0  0  0  0  0  0  0  0  0  0
   -2.6967   -1.4836   -0.8849 H   0  0  0  0  0  0  0  0  0  0  0  0
   -0.0280    1.6954    1.1844 H   0  0  0  0  0  0  0  0  0  0  0  0
    0.5587    2.6843   -1.0832 H   0  0  0  0  0  0  0  0  0  0  0  0
    1.7517    2.5730    0.0779 H   0  0  0  0  0  0  0  0  0  0  0  0
    2.0055    0.2664    1.1998 H   0  0  0  0  0  0  0  0  0  0  0  0
    0.4461   -0.6381    1.3860 H   0  0  0  0  0  0  0  0  0  0  0  0
    3.1385   -2.2457   -0.4441 H   0  0  0  0  0  0  0  0  0  0  0  0
    1.6119   -2.8703    0.2166 H   0  0  0  0  0  0  0  0  0  0  0  0
  1  2  1  0
  2  3  1  0
  3  4  2  0
  3  5  1  0
  5  6  1  0
  5  7  1  0
  7  8  1  0
  8  9  1  0
  8 10  2  0
  1 11  1  0
  1 12  1  0
  1 13  1  0
  5 14  1  1
  6 15  1  0
  6 16  1  0
  7 17  1  0
  7 18  1  0
  9 19  1  0
  9 20  1  0
M  END
$$$$

     RDKit          3D

 20 19  0  0  0  0  0  0  0  0999 V2000
    3.3588    0.5236   -0.3058 C   0  0  0  0  0  0  0  0  0  0  0  0
    1.9921    0.6794   -0.0348 O   0  0  0  0  0  0  0  0  0  0  0  0
    1.2783   -0.1630    0.8290 C   0  0  0  0  0  0  0  0  0  0  0  0
    1.9228   -1.0932    1.3710 O   0  0  0  0  0  0  0  0  0  0  0  0
   -0.1684    0.0815    1.0537 C   0  0  2  0  0  0  0  0  0  0  0  0
   -0.6715   -0.9174    1.9803 N   0  0  0  0  0  0  0  0  0  0  0  0
   -0.8710    0.0290   -0.2643 C   0  0  0  0  0  0  0  0  0  0  0  0
   -2.3076    0.2664   -0.0859 C   0  0  0  0  0  0  0  0  0  0  0  0
   -3.1514    0.2568   -1.2210 N   0  0  0  0  0  0  0  0  0  0  0  0
   -2.7924    0.4757    1.0482 O   0  0  0  0  0  0  0  0  0  0  0  0
    3.5003    0.5443   -1.4226 H   0  0  0  0  0  0  0  0  0  0  0  0
    3.7413   -0.4300    0.0958 H   0  0  0  0  0  0  0  0  0  0  0  0
    3.9577    1.3399    0.1503 H   0  0  0  0  0  0  0  0  0  0  0  0
   -0.3329    1.0704    1.5190 H   0  0  0  0  0  0  0  0  0  0  0  0
   -1.5122   -1.4072    1.5769 H   0  0  0  0  0  0  0  0  0  0  0  0
    0.0837   -1.6014    2.2314 H   0  0  0  0  0  0  0  0  0  0  0  0
   -0.4251    0.8133   -0.9141 H   0  0  0  0  0  0  0  0  0  0  0  0
   -0.6540   -0.9393   -0.7870 H   0  0  0  0  0  0  0  0  0  0  0  0
   -3.7239   -0.5865   -1.4018 H   0  0  0  0  0  0  0  0  0  0  0  0
   -3.2246    1.0577   -1.8843 H   0  0  0  0  0  0  0  0  0  0  0  0
  1  2  1  0
  2  3  1  0
  3  4  2  0
  3  5  1  0
  5  6  1  0
  5  7  1  0
  7  8  1  0
  8  9  1  0
  8 10  2  0
  1 11  1  0
  1 12  1  0
  1 13  1  0
  5 14  1  1
  6 15  1  0
  6 16  1  0
  7 17  1  0
  7 18  1  0
  9 19  1  0
  9 20  1  0
M  END
$$$$

     RDKit          3D

 20 19  0  0  0  0  0  0  0  0999 V2000
   -3.0769    1.3482   -0.5591 C   0  0  0  0  0  0  0  0  0  0  0  0
   -1.7971    0.8320   -0.8344 O   0  0  0  0  0  0  0  0  0  0  0  0
   -1.3699   -0.3002   -0.1704 C   0  0  0  0  0  0  0  0  0  0  0  0
   -2.1367   -0.8394    0.6629 O   0  0  0  0  0  0  0  0  0  0  0  0
   -0.0236   -0.8475   -0.4566 C   0  0  2  0  0  0  0  0  0  0  0  0
    0.2291   -2.0319    0.3416 N   0  0  0  0  0  0  0  0  0  0  0  0
    0.9876    0.1965   -0.0434 C   0  0  0  0  0  0  0  0  0  0  0  0
    2.3752   -0.2283   -0.2782 C   0  0  0  0  0  0  0  0  0  0  0  0
    3.4236    0.6436    0.0593 N   0  0  0  0  0  0  0  0  0  0  0  0
    2.6231   -1.3446   -0.7694 O   0  0  0  0  0  0  0  0  0  0  0  0
   -3.6525    0.7359    0.1591 H   0  0  0  0  0  0  0  0  0  0  0  0
   -2.9847    2.3679   -0.1005 H   0  0  0  0  0  0  0  0  0  0  0  0
   -3.6944    1.4036   -1.4920 H   0  0  0  0  0  0  0  0  0  0  0  0
    0.0830   -1.0889   -1.5258 H   0  0  0  0  0  0  0  0  0  0  0  0
   -0.6199   -2.6467    0.2650 H   0  0  0  0  0  0  0  0  0  0  0  0
    0.3090   -1.7340    1.3384 H   0  0  0  0  0  0  0  0  0  0  0  0
    0.8654    0.3896    1.0393 H   0  0  0  0  0  0  0  0  0  0  0  0
    0.7921    1.1225   -0.6103 H   0  0  0  0  0  0  0  0  0  0  0  0
    3.2579    1.6780    0.1302 H   0  0  0  0  0  0  0  0  0  0  0  0
    4.4095    0.3436    0.2581 H   0  0  0  0  0  0  0  0  0  0  0  0
  1  2  1  0
  2  3  1  0
  3  4  2  0
  3  5  1  0
  5  6  1  0
  5  7  1  0
  7  8  1  0
  8  9  1  0
  8 10  2  0
  1 11  1  0
  1 12  1  0
  1 13  1  0
  5 14  1  6
  6 15  1  0
  6 16  1  0
  7 17  1  0
  7 18  1  0
  9 19  1  0
  9 20  1  0
M  END
$$$$

     RDKit          3D

 20 19  0  0  0  0  0  0  0  0999 V2000
    3.4204    0.0753   -0.4864 C   0  0  0  0  0  0  0  0  0  0  0  0
    2.0177    0.0860   -0.7230 O   0  0  0  0  0  0  0  0  0  0  0  0
    1.1542    0.4201    0.3126 C   0  0  0  0  0  0  0  0  0  0  0  0
    1.6448    0.7012    1.4225 O   0  0  0  0  0  0  0  0  0  0  0  0
   -0.3187    0.4303    0.0605 C   0  0  2  0  0  0  0  0  0  0  0  0
   -0.9797    0.8142    1.3146 N   0  0  0  0  0  0  0  0  0  0  0  0
   -0.7743   -0.9780   -0.2644 C   0  0  0  0  0  0  0  0  0  0  0  0
   -2.2298   -0.9536   -0.5111 C   0  0  0  0  0  0  0  0  0  0  0  0
   -2.9930    0.2418   -0.4333 N   0  0  0  0  0  0  0  0  0  0  0  0
   -2.8438   -2.0197   -0.8037 O   0  0  0  0  0  0  0  0  0  0  0  0
    3.6547   -0.8633    0.0484 H   0  0  0  0  0  0  0  0  0  0  0  0
    3.7636    0.9662    0.0466 H   0  0  0  0  0  0  0  0  0  0  0  0
    3.9108   -0.0215   -1.4935 H   0  0  0  0  0  0  0  0  0  0  0  0
   -0.6038    1.1155   -0.7546 H   0  0  0  0  0  0  0  0  0  0  0  0
   -1.0864   -0.0059    1.9440 H   0  0  0  0  0  0  0  0  0  0  0  0
   -0.4069    1.5646    1.7689 H   0  0  0  0  0  0  0  0  0  0  0  0
   -0.2853   -1.2626   -1.2140 H   0  0  0  0  0  0  0  0  0  0  0  0
   -0.4953   -1.6576    0.5697 H   0  0  0  0  0  0  0  0  0  0  0  0
   -3.9004    0.2283    0.0676 H   0  0  0  0  0  0  0  0  0  0  0  0
   -2.6488    1.1187   -0.8714 H   0  0  0  0  0  0  0  0  0  0  0  0
  1  2  1  0
  2  3  1  0
  3  4  2  0
  3  5  1  0
  5  6  1  0
  5  7  1  0
  7  8  1  0
  8  9  1  0
  8 10  2  0
  1 11  1  0
  1 12  1  0
  1 13  1  0
  5 14  1  6
  6 15  1  0
  6 16  1  0
  7 17  1  0
  7 18  1  0
  9 19  1  0
  9 20  1  0
M  END
$$$$

     RDKit          3D

 20 19  0  0  0  0  0  0  0  0999 V2000
    3.4540    0.5742    0.2659 C   0  0  0  0  0  0  0  0  0  0  0  0
    2.1204    0.5473    0.7290 O   0  0  0  0  0  0  0  0  0  0  0  0
    1.2753   -0.4273    0.2022 C   0  0  0  0  0  0  0  0  0  0  0  0
    1.7382   -1.2261   -0.6507 O   0  0  0  0  0  0  0  0  0  0  0  0
   -0.1384   -0.5612    0.6027 C   0  0  2  0  0  0  0  0  0  0  0  0
   -0.7423   -1.6110   -0.0796 N   0  0  0  0  0  0  0  0  0  0  0  0
   -0.8266    0.7478    0.1904 C   0  0  0  0  0  0  0  0  0  0  0  0
   -2.2531    0.6546    0.5765 C   0  0  0  0  0  0  0  0  0  0  0  0
   -3.2568    0.3880   -0.4038 N   0  0  0  0  0  0  0  0  0  0  0  0
   -2.5451    0.8180    1.7916 O   0  0  0  0  0  0  0  0  0  0  0  0
    4.0187   -0.3328    0.5819 H   0  0  0  0  0  0  0  0  0  0  0  0
    3.9680    1.4771    0.6987 H   0  0  0  0  0  0  0  0  0  0  0  0
    3.5329    0.6824   -0.8282 H   0  0  0  0  0  0  0  0  0  0  0  0
   -0.2467   -0.6851    1.6926 H   0  0  0  0  0  0  0  0  0  0  0  0
   -0.6920   -1.6729   -1.0770 H   0  0  0  0  0  0  0  0  0  0  0  0
   -1.1744   -2.3742    0.4430 H   0  0  0  0  0  0  0  0  0  0  0  0
   -0.7138    0.8102   -0.9127 H   0  0  0  0  0  0  0  0  0  0  0  0
   -0.3007    1.5735    0.7096 H   0  0  0  0  0  0  0  0  0  0  0  0
   -3.9945    1.1166   -0.5353 H   0  0  0  0  0  0  0  0  0  0  0  0
   -3.2233   -0.4991   -0.9415 H   0  0  0  0  0  0  0  0  0  0  0  0
  1  2  1  0
  2  3  1  0
  3  4  2  0
  3  5  1  0
  5  6  1  0
  5  7  1  0
  7  8  1  0
  8  9  1  0
  8 10  2  0
  1 11  1  0
  1 12  1  0
  1 13  1  0
  5 14  1  1
  6 15  1  0
  6 16  1  0
  7 17  1  0
  7 18  1  0
  9 19  1  0
  9 20  1  0
M  END
$$$$

     RDKit          3D

 20 19  0  0  0  0  0  0  0  0999 V2000
    3.3567    0.1473   -0.4010 C   0  0  0  0  0  0  0  0  0  0  0  0
    2.1524   -0.4826    0.0486 O   0  0  0  0  0  0  0  0  0  0  0  0
    0.9845    0.2530    0.2782 C   0  0  0  0  0  0  0  0  0  0  0  0
    1.0963    1.4846    0.0567 O   0  0  0  0  0  0  0  0  0  0  0  0
   -0.2242   -0.4258    0.7365 C   0  0  2  0  0  0  0  0  0  0  0  0
    0.0803   -1.8502    0.8825 N   0  0  0  0  0  0  0  0  0  0  0  0
   -1.4083   -0.3341   -0.1610 C   0  0  0  0  0  0  0  0  0  0  0  0
   -1.9067    1.0131   -0.4365 C   0  0  0  0  0  0  0  0  0  0  0  0
   -3.0355    1.1240   -1.3070 N   0  0  0  0  0  0  0  0  0  0  0  0
   -1.4460    2.0889    0.0129 O   0  0  0  0  0  0  0  0  0  0  0  0
    3.1248    1.0368   -1.0192 H   0  0  0  0  0  0  0  0  0  0  0  0
    3.9875   -0.5809   -0.9462 H   0  0  0  0  0  0  0  0  0  0  0  0
    3.8680    0.5074    0.5150 H   0  0  0  0  0  0  0  0  0  0  0  0
   -0.5260   -0.1038    1.7686 H   0  0  0  0  0  0  0  0  0  0  0  0
    1.0255   -2.0175    1.2353 H   0  0  0  0  0  0  0  0  0  0  0  0
   -0.6785   -2.3608    1.3589 H   0  0  0  0  0  0  0  0  0  0  0  0
   -2.2433   -0.8847    0.3659 H   0  0  0  0  0  0  0  0  0  0  0  0
   -1.2603   -0.9265   -1.1040 H   0  0  0  0  0  0  0  0  0  0  0  0
   -3.9056    0.5712   -1.1189 H   0  0  0  0  0  0  0  0  0  0  0  0
   -3.0417    1.7406   -2.1409 H   0  0  0  0  0  0  0  0  0  0  0  0
  1  2  1  0
  2  3  1  0
  3  4  2  0
  3  5  1  0
  5  6  1  0
  5  7  1  0
  7  8  1  0
  8  9  1  0
  8 10  2  0
  1 11  1  0
  1 12  1  0
  1 13  1  0
  5 14  1  1
  6 15  1  0
  6 16  1  0
  7 17  1  0
  7 18  1  0
  9 19  1  0
  9 20  1  0
M  END
$$$$

     RDKit          3D

 20 19  0  0  0  0  0  0  0  0999 V2000
   -3.5163   -0.5022   -0.6596 C   0  0  0  0  0  0  0  0  0  0  0  0
   -2.1591   -0.4792   -0.9954 O   0  0  0  0  0  0  0  0  0  0  0  0
   -1.2541    0.3184   -0.3370 C   0  0  0  0  0  0  0  0  0  0  0  0
   -1.6287    1.0733    0.6140 O   0  0  0  0  0  0  0  0  0  0  0  0
    0.1937    0.3143   -0.7270 C   0  0  2  0  0  0  0  0  0  0  0  0
    0.3963   -0.5977   -1.8038 N   0  0  0  0  0  0  0  0  0  0  0  0
    0.9782   -0.0463    0.5108 C   0  0  0  0  0  0  0  0  0  0  0  0
    2.4325   -0.0904    0.2778 C   0  0  0  0  0  0  0  0  0  0  0  0
    3.2359    1.0432    0.6277 N   0  0  0  0  0  0  0  0  0  0  0  0
    2.9778   -1.0990   -0.2198 O   0  0  0  0  0  0  0  0  0  0  0  0
   -4.0843   -1.0704   -1.4337 H   0  0  0  0  0  0  0  0  0  0  0  0
   -3.8878    0.5308   -0.5645 H   0  0  0  0  0  0  0  0  0  0  0  0
   -3.6378   -1.0070    0.3326 H   0  0  0  0  0  0  0  0  0  0  0  0
    0.4569    1.3471   -1.0480 H   0  0  0  0  0  0  0  0  0  0  0  0
   -0.2808   -1.3632   -1.8827 H   0  0  0  0  0  0  0  0  0  0  0  0
    1.3670   -0.9012   -1.8970 H   0  0  0  0  0  0  0  0  0  0  0  0
    0.6099   -1.0499    0.8302 H   0  0  0  0  0  0  0  0  0  0  0  0
    0.7021    0.6561    1.3228 H   0  0  0  0  0  0  0  0  0  0  0  0
    4.2650    1.0385    0.4262 H   0  0  0  0  0  0  0  0  0  0  0  0
    2.8336    1.8849    1.0813 H   0  0  0  0  0  0  0  0  0  0  0  0
  1  2  1  0
  2  3  1  0
  3  4  2  0
  3  5  1  0
  5  6  1  0
  5  7  1  0
  7  8  1  0
  8  9  1  0
  8 10  2  0
  1 11  1  0
  1 12  1  0
  1 13  1  0
  5 14  1  6
  6 15  1  0
  6 16  1  0
  7 17  1  0
  7 18  1  0
  9 19  1  0
  9 20  1  0
M  END
$$$$

     RDKit          3D

 20 19  0  0  0  0  0  0  0  0999 V2000
    2.7687    0.9652    0.9425 C   0  0  0  0  0  0  0  0  0  0  0  0
    1.6477    0.1002    0.7916 O   0  0  0  0  0  0  0  0  0  0  0  0
    1.1432   -0.2539   -0.4525 C   0  0  0  0  0  0  0  0  0  0  0  0
    1.6891    0.2002   -1.4831 O   0  0  0  0  0  0  0  0  0  0  0  0
   -0.0303   -1.1635   -0.4682 C   0  0  2  0  0  0  0  0  0  0  0  0
   -0.4744   -1.4682   -1.8049 N   0  0  0  0  0  0  0  0  0  0  0  0
   -1.1538   -0.6805    0.4050 C   0  0  0  0  0  0  0  0  0  0  0  0
   -1.6642    0.6429    0.0039 C   0  0  0  0  0  0  0  0  0  0  0  0
   -2.7265    1.1956    0.7601 N   0  0  0  0  0  0  0  0  0  0  0  0
   -1.2189    1.3085   -0.9615 O   0  0  0  0  0  0  0  0  0  0  0  0
    2.9656    1.5245    0.0035 H   0  0  0  0  0  0  0  0  0  0  0  0
    3.6760    0.3855    1.2360 H   0  0  0  0  0  0  0  0  0  0  0  0
    2.5494    1.6429    1.7896 H   0  0  0  0  0  0  0  0  0  0  0  0
    0.3215   -2.1324   -0.0287 H   0  0  0  0  0  0  0  0  0  0  0  0
   -0.4753   -0.6767   -2.4467 H   0  0  0  0  0  0  0  0  0  0  0  0
   -0.0878   -2.3571   -2.1757 H   0  0  0  0  0  0  0  0  0  0  0  0
   -0.7363   -0.5792    1.4397 H   0  0  0  0  0  0  0  0  0  0  0  0
   -1.9489   -1.4320    0.3856 H   0  0  0  0  0  0  0  0  0  0  0  0
   -3.6704    0.7732    0.6943 H   0  0  0  0  0  0  0  0  0  0  0  0
   -2.5745    2.0049    1.3695 H   0  0  0  0  0  0  0  0  0  0  0  0
  1  2  1  0
  2  3  1  0
  3  4  2  0
  3  5  1  0
  5  6  1  0
  5  7  1  0
  7  8  1  0
  8  9  1  0
  8 10  2  0
  1 11  1  0
  1 12  1  0
  1 13  1  0
  5 14  1  1
  6 15  1  0
  6 16  1  0
  7 17  1  0
  7 18  1  0
  9 19  1  0
  9 20  1  0
M  END
$$$$
