
     RDKit          3D

 18 19  0  0  0  0  0  0  0  0999 V2000
    2.0310   -2.0746   -1.3833 O   0  0  0  0  0  0  0  0  0  0  0  0
    1.5608   -1.1481   -0.7466 C   0  0  0  0  0  0  0  0  0  0  0  0
    2.2426    0.1296   -0.3958 C   0  0  0  0  0  0  0  0  0  0  0  0
    1.1641    1.0379   -0.4759 O   0  0  0  0  0  0  0  0  0  0  0  0
    0.2066    0.3961    0.3409 C   0  0  1  0  0  0  0  0  0  0  0  0
   -1.1857    0.8584    0.0064 C   0  0  2  0  0  0  0  0  0  0  0  0
   -1.8075    1.4283    1.0986 O   0  0  0  0  0  0  0  0  0  0  0  0
   -1.8650   -0.4492   -0.3942 C   0  0  0  0  0  0  0  0  0  0  0  0
   -0.8071   -1.0698   -1.0962 O   0  0  0  0  0  0  0  0  0  0  0  0
    0.1965   -1.0370   -0.1517 C   0  0  1  0  0  0  0  0  0  0  0  0
    3.0455    0.3966   -1.0998 H   0  0  0  0  0  0  0  0  0  0  0  0
    2.5717    0.1521    0.6646 H   0  0  0  0  0  0  0  0  0  0  0  0
    0.4736    0.4973    1.3927 H   0  0  0  0  0  0  0  0  0  0  0  0
   -1.2091    1.5706   -0.8388 H   0  0  0  0  0  0  0  0  0  0  0  0
   -1.8837    2.4149    1.0427 H   0  0  0  0  0  0  0  0  0  0  0  0
   -2.7404   -0.2802   -1.0203 H   0  0  0  0  0  0  0  0  0  0  0  0
   -2.0333   -1.0634    0.4993 H   0  0  0  0  0  0  0  0  0  0  0  0
    0.0392   -1.7598    0.6653 H   0  0  0  0  0  0  0  0  0  0  0  0
  1  2  2  0
  2  3  1  0
  3  4  1  0
  4  5  1  0
  5  6  1  0
  6  7  1  0
  6  8  1  0
  8  9  1  0
  9 10  1  0
 10  2  1  0
 10  5  1  0
  3 11  1  0
  3 12  1  0
  5 13  1  1
  6 14  1  6
  7 15  1  0
  8 16  1  0
  8 17  1  0
 10 18  1  1
M  END
$$$$

     RDKit          3D

 18 19  0  0  0  0  0  0  0  0999 V2000
   -2.5629   -1.7647   -0.0211 O   0  0  0  0  0  0  0  0  0  0  0  0
   -1.7433   -0.8925   -0.2191 C   0  0  0  0  0  0  0  0  0  0  0  0
   -2.0303    0.5521   -0.2949 C   0  0  0  0  0  0  0  0  0  0  0  0
   -0.9666    1.1191   -0.9601 O   0  0  0  0  0  0  0  0  0  0  0  0
    0.1419    0.3481   -0.7861 C   0  0  1  0  0  0  0  0  0  0  0  0
    0.9788    0.7331    0.4189 C   0  0  2  0  0  0  0  0  0  0  0  0
    1.9435    1.6587    0.1258 O   0  0  0  0  0  0  0  0  0  0  0  0
    1.5676   -0.6435    0.7533 C   0  0  0  0  0  0  0  0  0  0  0  0
    0.3854   -1.4192    0.7170 O   0  0  0  0  0  0  0  0  0  0  0  0
   -0.2792   -1.0454   -0.4310 C   0  0  1  0  0  0  0  0  0  0  0  0
   -2.1424    0.9331    0.7580 H   0  0  0  0  0  0  0  0  0  0  0  0
   -2.9581    0.7262   -0.8879 H   0  0  0  0  0  0  0  0  0  0  0  0
    0.7273    0.3432   -1.7249 H   0  0  0  0  0  0  0  0  0  0  0  0
    0.2892    1.0005    1.2222 H   0  0  0  0  0  0  0  0  0  0  0  0
    2.4847    1.8148    0.9194 H   0  0  0  0  0  0  0  0  0  0  0  0
    2.1856   -0.9992   -0.0895 H   0  0  0  0  0  0  0  0  0  0  0  0
    2.0354   -0.6770    1.7279 H   0  0  0  0  0  0  0  0  0  0  0  0
   -0.0566   -1.7873   -1.2279 H   0  0  0  0  0  0  0  0  0  0  0  0
  1  2  2  0
  2  3  1  0
  3  4  1  0
  4  5  1  0
  5  6  1  0
  6  7  1  0
  6  8  1  0
  8  9  1  0
  9 10  1  0
 10  2  1  0
 10  5  1  0
  3 11  1  0
  3 12  1  0
  5 13  1  6
  6 14  1  1
  7 15  1  0
  8 16  1  0
  8 17  1  0
 10 18  1  6
M  END
$$$$

     RDKit          3D

 18 19  0  0  0  0  0  0  0  0999 V2000
    2.7353   -1.0996    1.1454 O   0  0  0  0  0  0  0  0  0  0  0  0
    1.8676   -0.5923    0.4904 C   0  0  0  0  0  0  0  0  0  0  0  0
    1.9832   -0.0232   -0.8675 C   0  0  0  0  0  0  0  0  0  0  0  0
    0.8441    0.6746   -1.1403 O   0  0  0  0  0  0  0  0  0  0  0  0
    0.0436    0.7226   -0.0378 C   0  0  1  0  0  0  0  0  0  0  0  0
   -1.4052    0.4559   -0.2866 C   0  0  2  0  0  0  0  0  0  0  0  0
   -2.2230    1.2933    0.4852 O   0  0  0  0  0  0  0  0  0  0  0  0
   -1.5620   -0.9822    0.0973 C   0  0  0  0  0  0  0  0  0  0  0  0
   -0.3312   -1.4596    0.4825 O   0  0  0  0  0  0  0  0  0  0  0  0
    0.4528   -0.4083    0.8819 C   0  0  1  0  0  0  0  0  0  0  0  0
    2.0820   -0.8806   -1.5963 H   0  0  0  0  0  0  0  0  0  0  0  0
    2.8865    0.6194   -0.9860 H   0  0  0  0  0  0  0  0  0  0  0  0
    0.1694    1.6767    0.5158 H   0  0  0  0  0  0  0  0  0  0  0  0
   -1.6386    0.6319   -1.3663 H   0  0  0  0  0  0  0  0  0  0  0  0
   -2.0053    2.2194    0.2219 H   0  0  0  0  0  0  0  0  0  0  0  0
   -2.3641   -1.1590    0.8349 H   0  0  0  0  0  0  0  0  0  0  0  0
   -1.8667   -1.5488   -0.8232 H   0  0  0  0  0  0  0  0  0  0  0  0
    0.3317   -0.1403    1.9489 H   0  0  0  0  0  0  0  0  0  0  0  0
  1  2  2  0
  2  3  1  0
  3  4  1  0
  4  5  1  0
  5  6  1  0
  6  7  1  0
  6  8  1  0
  8  9  1  0
  9 10  1  0
 10  2  1  0
 10  5  1  0
  3 11  1  0
  3 12  1  0
  5 13  1  1
  6 14  1  6
  7 15  1  0
  8 16  1  0
  8 17  1  0
 10 18  1  1
M  END
$$$$

     RDKit          3D

 18 19  0  0  0  0  0  0  0  0999 V2000
    2.2625   -2.1482   -0.2249 O   0  0  0  0  0  0  0  0  0  0  0  0
    1.6772   -1.0861   -0.2265 C   0  0  0  0  0  0  0  0  0  0  0  0
    2.0875    0.2137   -0.8179 C   0  0  0  0  0  0  0  0  0  0  0  0
    0.8533    0.7687   -1.1555 O   0  0  0  0  0  0  0  0  0  0  0  0
    0.1549    0.6388    0.0445 C   0  0  1  0  0  0  0  0  0  0  0  0
   -1.3388    0.7262   -0.1606 C   0  0  2  0  0  0  0  0  0  0  0  0
   -1.9360    1.5471    0.7597 O   0  0  0  0  0  0  0  0  0  0  0  0
   -1.8291   -0.7017   -0.0308 C   0  0  0  0  0  0  0  0  0  0  0  0
   -0.6813   -1.5024   -0.2242 O   0  0  0  0  0  0  0  0  0  0  0  0
    0.3502   -0.8424    0.3971 C   0  0  1  0  0  0  0  0  0  0  0  0
    2.5206    0.8543   -0.0320 H   0  0  0  0  0  0  0  0  0  0  0  0
    2.7502    0.0983   -1.6977 H   0  0  0  0  0  0  0  0  0  0  0  0
    0.5334    1.2790    0.8437 H   0  0  0  0  0  0  0  0  0  0  0  0
   -1.5626    1.1363   -1.1797 H   0  0  0  0  0  0  0  0  0  0  0  0
   -1.3725    1.8219    1.5137 H   0  0  0  0  0  0  0  0  0  0  0  0
   -2.2720   -0.8865    0.9806 H   0  0  0  0  0  0  0  0  0  0  0  0
   -2.5694   -0.9426   -0.8400 H   0  0  0  0  0  0  0  0  0  0  0  0
    0.3718   -0.9743    1.4973 H   0  0  0  0  0  0  0  0  0  0  0  0
  1  2  2  0
  2  3  1  0
  3  4  1  0
  4  5  1  0
  5  6  1  0
  6  7  1  0
  6  8  1  0
  8  9  1  0
  9 10  1  0
 10  2  1  0
 10  5  1  0
  3 11  1  0
  3 12  1  0
  5 13  1  1
  6 14  1  6
  7 15  1  0
  8 16  1  0
  8 17  1  0
 10 18  1  1
M  END
$$$$

     RDKit          3D

 18 19  0  0  0  0  0  0  0  0999 V2000
    2.3040   -1.7553    0.6748 O   0  0  0  0  0  0  0  0  0  0  0  0
    1.6904   -0.7711    0.3981 C   0  0  0  0  0  0  0  0  0  0  0  0
    2.0839    0.2808   -0.5532 C   0  0  0  0  0  0  0  0  0  0  0  0
    0.8578    0.5108   -1.1996 O   0  0  0  0  0  0  0  0  0  0  0  0
   -0.0176    0.7038   -0.1075 C   0  0  1  0  0  0  0  0  0  0  0  0
   -1.4223    0.3338   -0.4454 C   0  0  2  0  0  0  0  0  0  0  0  0
   -2.2862    1.0107    0.4001 O   0  0  0  0  0  0  0  0  0  0  0  0
   -1.4649   -1.1349   -0.0652 C   0  0  0  0  0  0  0  0  0  0  0  0
   -0.5722   -1.3005    0.9597 O   0  0  0  0  0  0  0  0  0  0  0  0
    0.3870   -0.3322    0.9180 C   0  0  1  0  0  0  0  0  0  0  0  0
    2.3251    1.1968    0.0296 H   0  0  0  0  0  0  0  0  0  0  0  0
    2.8748   -0.0118   -1.2490 H   0  0  0  0  0  0  0  0  0  0  0  0
    0.1292    1.7360    0.2259 H   0  0  0  0  0  0  0  0  0  0  0  0
   -1.6865    0.4955   -1.5086 H   0  0  0  0  0  0  0  0  0  0  0  0
   -2.0066    1.9755    0.3744 H   0  0  0  0  0  0  0  0  0  0  0  0
   -1.2062   -1.8006   -0.8940 H   0  0  0  0  0  0  0  0  0  0  0  0
   -2.5128   -1.3426    0.2928 H   0  0  0  0  0  0  0  0  0  0  0  0
    0.5231    0.2053    1.8838 H   0  0  0  0  0  0  0  0  0  0  0  0
  1  2  2  0
  2  3  1  0
  3  4  1  0
  4  5  1  0
  5  6  1  0
  6  7  1  0
  6  8  1  0
  8  9  1  0
  9 10  1  0
 10  2  1  0
 10  5  1  0
  3 11  1  0
  3 12  1  0
  5 13  1  1
  6 14  1  6
  7 15  1  0
  8 16  1  0
  8 17  1  0
 10 18  1  1
M  END
$$$$

     RDKit          3D

 18 19  0  0  0  0  0  0  0  0999 V2000
    2.3010    2.0344   -0.1544 O   0  0  0  0  0  0  0  0  0  0  0  0
    1.6914    1.0027   -0.1681 C   0  0  0  0  0  0  0  0  0  0  0  0
    2.1668   -0.3250    0.2432 C   0  0  0  0  0  0  0  0  0  0  0  0
    1.0235   -1.0623    0.5065 O   0  0  0  0  0  0  0  0  0  0  0  0
    0.0183   -0.6071   -0.3057 C   0  0  1  0  0  0  0  0  0  0  0  0
   -1.2523   -0.5347    0.5175 C   0  0  2  0  0  0  0  0  0  0  0  0
   -2.0842   -1.5603    0.0835 O   0  0  0  0  0  0  0  0  0  0  0  0
   -1.7716    0.8313    0.1703 C   0  0  0  0  0  0  0  0  0  0  0  0
   -0.6124    1.6016    0.0916 O   0  0  0  0  0  0  0  0  0  0  0  0
    0.2907    0.8416   -0.6148 C   0  0  1  0  0  0  0  0  0  0  0  0
    2.7143   -0.8301   -0.5802 H   0  0  0  0  0  0  0  0  0  0  0  0
    2.7773   -0.2116    1.1472 H   0  0  0  0  0  0  0  0  0  0  0  0
   -0.1184   -1.2014   -1.2371 H   0  0  0  0  0  0  0  0  0  0  0  0
   -1.0410   -0.6009    1.5975 H   0  0  0  0  0  0  0  0  0  0  0  0
   -1.5876   -2.4090    0.2632 H   0  0  0  0  0  0  0  0  0  0  0  0
   -2.4591    1.1470    0.9592 H   0  0  0  0  0  0  0  0  0  0  0  0
   -2.2483    0.8447   -0.8125 H   0  0  0  0  0  0  0  0  0  0  0  0
    0.1915    1.0393   -1.7069 H   0  0  0  0  0  0  0  0  0  0  0  0
  1  2  2  0
  2  3  1  0
  3  4  1  0
  4  5  1  0
  5  6  1  0
  6  7  1  0
  6  8  1  0
  8  9  1  0
  9 10  1  0
 10  2  1  0
 10  5  1  0
  3 11  1  0
  3 12  1  0
  5 13  1  6
  6 14  1  1
  7 15  1  0
  8 16  1  0
  8 17  1  0
 10 18  1  6
M  END
$$$$

     RDKit          3D

 18 19  0  0  0  0  0  0  0  0999 V2000
    2.6964   -0.9345   -1.1216 O   0  0  0  0  0  0  0  0  0  0  0  0
    1.8922   -0.3119   -0.4671 C   0  0  0  0  0  0  0  0  0  0  0  0
    1.9241    1.1354   -0.1339 C   0  0  0  0  0  0  0  0  0  0  0  0
    0.5717    1.4667   -0.2079 O   0  0  0  0  0  0  0  0  0  0  0  0
   -0.0437    0.4899    0.5391 C   0  0  1  0  0  0  0  0  0  0  0  0
   -1.4612    0.2032    0.0599 C   0  0  2  0  0  0  0  0  0  0  0  0
   -2.4032    0.6194    0.9813 O   0  0  0  0  0  0  0  0  0  0  0  0
   -1.4311   -1.3072   -0.0473 C   0  0  0  0  0  0  0  0  0  0  0  0
   -0.1797   -1.4950   -0.6785 O   0  0  0  0  0  0  0  0  0  0  0  0
    0.6579   -0.8264    0.1788 C   0  0  1  0  0  0  0  0  0  0  0  0
    2.2503    1.2204    0.9299 H   0  0  0  0  0  0  0  0  0  0  0  0
    2.5475    1.7241   -0.8170 H   0  0  0  0  0  0  0  0  0  0  0  0
   -0.0144    0.6795    1.6199 H   0  0  0  0  0  0  0  0  0  0  0  0
   -1.6392    0.6407   -0.9485 H   0  0  0  0  0  0  0  0  0  0  0  0
   -2.6716    1.5474    0.7075 H   0  0  0  0  0  0  0  0  0  0  0  0
   -2.2575   -1.7251   -0.6218 H   0  0  0  0  0  0  0  0  0  0  0  0
   -1.3264   -1.7231    0.9750 H   0  0  0  0  0  0  0  0  0  0  0  0
    0.8880   -1.4036    1.0929 H   0  0  0  0  0  0  0  0  0  0  0  0
  1  2  2  0
  2  3  1  0
  3  4  1  0
  4  5  1  0
  5  6  1  0
  6  7  1  0
  6  8  1  0
  8  9  1  0
  9 10  1  0
 10  2  1  0
 10  5  1  0
  3 11  1  0
  3 12  1  0
  5 13  1  1
  6 14  1  6
  7 15  1  0
  8 16  1  0
  8 17  1  0
 10 18  1  1
M  END
$$$$

     RDKit          3D

 18 19  0  0  0  0  0  0  0  0999 V2000
    2.5767    1.5826    0.0702 O   0  0  0  0  0  0  0  0  0  0  0  0
    1.7791    0.7136   -0.1244 C   0  0  0  0  0  0  0  0  0  0  0  0
    1.9908   -0.7497   -0.3598 C   0  0  0  0  0  0  0  0  0  0  0  0
    0.7312   -1.2901   -0.4674 O   0  0  0  0  0  0  0  0  0  0  0  0
   -0.1162   -0.3224   -0.9775 C   0  0  1  0  0  0  0  0  0  0  0  0
   -1.5365   -0.4582   -0.4387 C   0  0  2  0  0  0  0  0  0  0  0  0
   -2.2576    0.6086   -0.9425 O   0  0  0  0  0  0  0  0  0  0  0  0
   -1.2201   -0.1919    1.0397 C   0  0  0  0  0  0  0  0  0  0  0  0
   -0.2982    0.8205    1.0484 O   0  0  0  0  0  0  0  0  0  0  0  0
    0.3043    0.9029   -0.1799 C   0  0  1  0  0  0  0  0  0  0  0  0
    2.5231   -0.9387   -1.3102 H   0  0  0  0  0  0  0  0  0  0  0  0
    2.5713   -1.1209    0.5111 H   0  0  0  0  0  0  0  0  0  0  0  0
   -0.0701   -0.1849   -2.0486 H   0  0  0  0  0  0  0  0  0  0  0  0
   -1.9712   -1.4348   -0.6064 H   0  0  0  0  0  0  0  0  0  0  0  0
   -2.2311    1.3652   -0.2931 H   0  0  0  0  0  0  0  0  0  0  0  0
   -2.1203   -0.0157    1.6301 H   0  0  0  0  0  0  0  0  0  0  0  0
   -0.6864   -1.1238    1.3845 H   0  0  0  0  0  0  0  0  0  0  0  0
    0.0311    1.8379   -0.7104 H   0  0  0  0  0  0  0  0  0  0  0  0
  1  2  2  0
  2  3  1  0
  3  4  1  0
  4  5  1  0
  5  6  1  0
  6  7  1  0
  6  8  1  0
  8  9  1  0
  9 10  1  0
 10  2  1  0
 10  5  1  0
  3 11  1  0
  3 12  1  0
  5 13  1  6
  6 14  1  1
  7 15  1  0
  8 16  1  0
  8 17  1  0
 10 18  1  6
M  END
$$$$
