
     RDKit          3D

 26 25  0  0  0  0  0  0  0  0999 V2000
    2.5659   -1.1280    0.1197 C   0  0  0  0  0  0  0  0  0  0  0  0
    1.9845    0.1668    0.5515 C   0  0  2  0  0  0  0  0  0  0  0  0
    1.6888    0.1216    1.9122 O   0  0  0  0  0  0  0  0  0  0  0  0
    0.8724    0.7286   -0.2569 C   0  0  0  0  0  0  0  0  0  0  0  0
   -0.3890    0.0790   -0.1825 N   0  0  0  0  0  0  0  0  0  0  0  0
   -0.5147   -1.2052   -0.7519 C   0  0  0  0  0  0  0  0  0  0  0  0
   -1.8848   -1.7417   -0.4364 C   0  0  0  0  0  0  0  0  0  0  0  0
   -2.3035   -2.8077   -0.9899 O   0  0  0  0  0  0  0  0  0  0  0  0
   -2.7628   -1.1508    0.4443 O   0  0  0  0  0  0  0  0  0  0  0  0
   -1.3622    0.9735   -0.8137 C   0  0  0  0  0  0  0  0  0  0  0  0
   -1.6129    2.1692    0.0263 C   0  0  0  0  0  0  0  0  0  0  0  0
   -2.3226    3.1226   -0.4213 O   0  0  0  0  0  0  0  0  0  0  0  0
   -1.0919    2.2841    1.3057 O   0  0  0  0  0  0  0  0  0  0  0  0
    3.6991   -1.1230    0.2386 H   0  0  0  0  0  0  0  0  0  0  0  0
    2.4113   -1.3815   -0.9589 H   0  0  0  0  0  0  0  0  0  0  0  0
    2.2539   -2.0025    0.7225 H   0  0  0  0  0  0  0  0  0  0  0  0
    2.8499    0.9288    0.5101 H   0  0  0  0  0  0  0  0  0  0  0  0
    2.2623   -0.5719    2.3582 H   0  0  0  0  0  0  0  0  0  0  0  0
    1.1996    0.8121   -1.3369 H   0  0  0  0  0  0  0  0  0  0  0  0
    0.7409    1.7816    0.0553 H   0  0  0  0  0  0  0  0  0  0  0  0
    0.2051   -1.9663   -0.4172 H   0  0  0  0  0  0  0  0  0  0  0  0
   -0.4688   -1.2060   -1.8780 H   0  0  0  0  0  0  0  0  0  0  0  0
   -3.3354   -1.6742    1.1014 H   0  0  0  0  0  0  0  0  0  0  0  0
   -2.2903    0.4622   -1.0397 H   0  0  0  0  0  0  0  0  0  0  0  0
   -0.9380    1.3338   -1.8075 H   0  0  0  0  0  0  0  0  0  0  0  0
   -1.4568    2.9951    1.9447 H   0  0  0  0  0  0  0  0  0  0  0  0
  1  2  1  0
  2  3  1  0
  2  4  1  0
  4  5  1  0
  5  6  1  0
  6  7  1  0
  7  8  2  0
  7  9  1  0
  5 10  1  0
 10 11  1  0
 11 12  2  0
 11 13  1  0
  1 14  1  0
  1 15  1  0
  1 16  1  0
  2 17  1  1
  3 18  1  0
  4 19  1  0
  4 20  1  0
  6 21  1  0
  6 22  1  0
  9 23  1  0
 10 24  1  0
 10 25  1  0
 13 26  1  0
M  END
$$$$

     RDKit          3D

 26 25  0  0  0  0  0  0  0  0999 V2000
    2.8303   -1.5681    0.4678 C   0  0  0  0  0  0  0  0  0  0  0  0
    2.0300   -0.3037    0.0873 C   0  0  2  0  0  0  0  0  0  0  0  0
    2.1965    0.6317    1.0648 O   0  0  0  0  0  0  0  0  0  0  0  0
    0.5984   -0.7767   -0.1351 C   0  0  0  0  0  0  0  0  0  0  0  0
   -0.3208    0.2771   -0.5158 N   0  0  0  0  0  0  0  0  0  0  0  0
   -1.5259   -0.3666   -1.0044 C   0  0  0  0  0  0  0  0  0  0  0  0
   -2.3307   -1.1042   -0.0686 C   0  0  0  0  0  0  0  0  0  0  0  0
   -3.5060   -1.4418   -0.3449 O   0  0  0  0  0  0  0  0  0  0  0  0
   -1.8755   -1.4971    1.1820 O   0  0  0  0  0  0  0  0  0  0  0  0
   -0.6207    1.2287    0.5334 C   0  0  0  0  0  0  0  0  0  0  0  0
   -1.2915    2.4062   -0.0583 C   0  0  0  0  0  0  0  0  0  0  0  0
   -1.5403    2.5471   -1.2767 O   0  0  0  0  0  0  0  0  0  0  0  0
   -1.6775    3.4545    0.7930 O   0  0  0  0  0  0  0  0  0  0  0  0
    3.8988   -1.4431    0.1654 H   0  0  0  0  0  0  0  0  0  0  0  0
    2.3516   -2.3987   -0.0746 H   0  0  0  0  0  0  0  0  0  0  0  0
    2.7459   -1.7509    1.5453 H   0  0  0  0  0  0  0  0  0  0  0  0
    2.4584    0.0440   -0.9006 H   0  0  0  0  0  0  0  0  0  0  0  0
    2.7251    1.3943    0.6839 H   0  0  0  0  0  0  0  0  0  0  0  0
    0.6494   -1.4881   -0.9870 H   0  0  0  0  0  0  0  0  0  0  0  0
    0.2926   -1.3612    0.7519 H   0  0  0  0  0  0  0  0  0  0  0  0
   -2.1024    0.3739   -1.5567 H   0  0  0  0  0  0  0  0  0  0  0  0
   -1.1167   -1.1000   -1.7749 H   0  0  0  0  0  0  0  0  0  0  0  0
   -1.9635   -2.4146    1.5617 H   0  0  0  0  0  0  0  0  0  0  0  0
   -1.4792    0.7348    1.1422 H   0  0  0  0  0  0  0  0  0  0  0  0
    0.1901    1.5106    1.2013 H   0  0  0  0  0  0  0  0  0  0  0  0
   -1.6163    4.4119    0.4583 H   0  0  0  0  0  0  0  0  0  0  0  0
  1  2  1  0
  2  3  1  0
  2  4  1  0
  4  5  1  0
  5  6  1  0
  6  7  1  0
  7  8  2  0
  7  9  1  0
  5 10  1  0
 10 11  1  0
 11 12  2  0
 11 13  1  0
  1 14  1  0
  1 15  1  0
  1 16  1  0
  2 17  1  6
  3 18  1  0
  4 19  1  0
  4 20  1  0
  6 21  1  0
  6 22  1  0
  9 23  1  0
 10 24  1  0
 10 25  1  0
 13 26  1  0
M  END
$$$$

     RDKit          3D

 26 25  0  0  0  0  0  0  0  0999 V2000
    2.6246    0.1183    0.9756 C   0  0  0  0  0  0  0  0  0  0  0  0
    2.2578   -0.6053   -0.3548 C   0  0  2  0  0  0  0  0  0  0  0  0
    2.3947    0.3657   -1.3817 O   0  0  0  0  0  0  0  0  0  0  0  0
    0.9250   -1.1983   -0.2360 C   0  0  0  0  0  0  0  0  0  0  0  0
   -0.1455   -0.3164    0.2547 N   0  0  0  0  0  0  0  0  0  0  0  0
   -1.3202   -1.1553   -0.0471 C   0  0  0  0  0  0  0  0  0  0  0  0
   -2.5816   -0.8390    0.5353 C   0  0  0  0  0  0  0  0  0  0  0  0
   -2.7460   -0.4703    1.7184 O   0  0  0  0  0  0  0  0  0  0  0  0
   -3.7623   -0.9349   -0.2446 O   0  0  0  0  0  0  0  0  0  0  0  0
   -0.2749    0.8853   -0.4962 C   0  0  0  0  0  0  0  0  0  0  0  0
   -1.0613    1.9087    0.2138 C   0  0  0  0  0  0  0  0  0  0  0  0
   -1.1465    1.9168    1.4516 O   0  0  0  0  0  0  0  0  0  0  0  0
   -1.7160    2.8775   -0.5098 O   0  0  0  0  0  0  0  0  0  0  0  0
    2.9064    1.1728    0.7657 H   0  0  0  0  0  0  0  0  0  0  0  0
    1.7257    0.0918    1.6201 H   0  0  0  0  0  0  0  0  0  0  0  0
    3.4710   -0.3636    1.4816 H   0  0  0  0  0  0  0  0  0  0  0  0
    3.0303   -1.3597   -0.5128 H   0  0  0  0  0  0  0  0  0  0  0  0
    3.3443    0.3514   -1.6891 H   0  0  0  0  0  0  0  0  0  0  0  0
    0.9845   -1.9952    0.5532 H   0  0  0  0  0  0  0  0  0  0  0  0
    0.6015   -1.6756   -1.1745 H   0  0  0  0  0  0  0  0  0  0  0  0
   -1.3942   -1.2416   -1.1790 H   0  0  0  0  0  0  0  0  0  0  0  0
   -1.0449   -2.1969    0.2658 H   0  0  0  0  0  0  0  0  0  0  0  0
   -4.6833   -0.9631    0.1655 H   0  0  0  0  0  0  0  0  0  0  0  0
    0.6935    1.4021   -0.7011 H   0  0  0  0  0  0  0  0  0  0  0  0
   -0.7967    0.6734   -1.4681 H   0  0  0  0  0  0  0  0  0  0  0  0
   -2.2857    3.5513   -0.0065 H   0  0  0  0  0  0  0  0  0  0  0  0
  1  2  1  0
  2  3  1  0
  2  4  1  0
  4  5  1  0
  5  6  1  0
  6  7  1  0
  7  8  2  0
  7  9  1  0
  5 10  1  0
 10 11  1  0
 11 12  2  0
 11 13  1  0
  1 14  1  0
  1 15  1  0
  1 16  1  0
  2 17  1  6
  3 18  1  0
  4 19  1  0
  4 20  1  0
  6 21  1  0
  6 22  1  0
  9 23  1  0
 10 24  1  0
 10 25  1  0
 13 26  1  0
M  END
$$$$

     RDKit          3D

 26 25  0  0  0  0  0  0  0  0999 V2000
   -2.9026   -0.1739   -1.3875 C   0  0  0  0  0  0  0  0  0  0  0  0
   -1.7854   -0.6885   -0.4852 C   0  0  2  0  0  0  0  0  0  0  0  0
   -2.3181   -0.6744    0.8067 O   0  0  0  0  0  0  0  0  0  0  0  0
   -0.6335    0.2789   -0.5997 C   0  0  0  0  0  0  0  0  0  0  0  0
    0.4541    0.0035    0.2983 N   0  0  0  0  0  0  0  0  0  0  0  0
    1.1152   -1.2216   -0.0936 C   0  0  0  0  0  0  0  0  0  0  0  0
    2.1496   -1.6906    0.8425 C   0  0  0  0  0  0  0  0  0  0  0  0
    2.3753   -1.2050    1.9638 O   0  0  0  0  0  0  0  0  0  0  0  0
    2.9340   -2.7623    0.4349 O   0  0  0  0  0  0  0  0  0  0  0  0
    1.4407    1.0532    0.3158 C   0  0  0  0  0  0  0  0  0  0  0  0
    1.0188    2.3065    0.9010 C   0  0  0  0  0  0  0  0  0  0  0  0
    1.8124    3.2631    0.9531 O   0  0  0  0  0  0  0  0  0  0  0  0
   -0.2389    2.5136    1.4178 O   0  0  0  0  0  0  0  0  0  0  0  0
   -2.9980   -0.8114   -2.2986 H   0  0  0  0  0  0  0  0  0  0  0  0
   -2.6784    0.8419   -1.7116 H   0  0  0  0  0  0  0  0  0  0  0  0
   -3.8953   -0.2315   -0.8865 H   0  0  0  0  0  0  0  0  0  0  0  0
   -1.5188   -1.6961   -0.7974 H   0  0  0  0  0  0  0  0  0  0  0  0
   -2.2202    0.2125    1.2363 H   0  0  0  0  0  0  0  0  0  0  0  0
   -1.0470    1.2942   -0.5035 H   0  0  0  0  0  0  0  0  0  0  0  0
   -0.2379    0.1899   -1.6311 H   0  0  0  0  0  0  0  0  0  0  0  0
    1.6597   -1.0550   -1.0757 H   0  0  0  0  0  0  0  0  0  0  0  0
    0.3942   -2.0389   -0.3340 H   0  0  0  0  0  0  0  0  0  0  0  0
    3.8234   -2.9965    0.8407 H   0  0  0  0  0  0  0  0  0  0  0  0
    2.3825    0.6271    0.6876 H   0  0  0  0  0  0  0  0  0  0  0  0
    1.6640    1.2731   -0.7799 H   0  0  0  0  0  0  0  0  0  0  0  0
   -0.7500    3.3881    1.3169 H   0  0  0  0  0  0  0  0  0  0  0  0
  1  2  1  0
  2  3  1  0
  2  4  1  0
  4  5  1  0
  5  6  1  0
  6  7  1  0
  7  8  2  0
  7  9  1  0
  5 10  1  0
 10 11  1  0
 11 12  2  0
 11 13  1  0
  1 14  1  0
  1 15  1  0
  1 16  1  0
  2 17  1  6
  3 18  1  0
  4 19  1  0
  4 20  1  0
  6 21  1  0
  6 22  1  0
  9 23  1  0
 10 24  1  0
 10 25  1  0
 13 26  1  0
M  END
$$$$

     RDKit          3D

 26 25  0  0  0  0  0  0  0  0999 V2000
    2.6623   -1.0713    0.1111 C   0  0  0  0  0  0  0  0  0  0  0  0
    2.1470    0.3215   -0.0555 C   0  0  2  0  0  0  0  0  0  0  0  0
    3.0434    1.1148    0.7317 O   0  0  0  0  0  0  0  0  0  0  0  0
    0.7743    0.6162    0.3918 C   0  0  0  0  0  0  0  0  0  0  0  0
   -0.3103   -0.0781   -0.2936 N   0  0  0  0  0  0  0  0  0  0  0  0
   -1.5617    0.6672    0.0292 C   0  0  0  0  0  0  0  0  0  0  0  0
   -1.5976    1.9820   -0.5997 C   0  0  0  0  0  0  0  0  0  0  0  0
   -0.7578    2.5169   -1.3358 O   0  0  0  0  0  0  0  0  0  0  0  0
   -2.7536    2.7429   -0.3290 O   0  0  0  0  0  0  0  0  0  0  0  0
   -0.5504   -1.3306    0.4555 C   0  0  0  0  0  0  0  0  0  0  0  0
   -1.5576   -2.1917   -0.1666 C   0  0  0  0  0  0  0  0  0  0  0  0
   -1.8327   -3.2815    0.4434 O   0  0  0  0  0  0  0  0  0  0  0  0
   -2.2474   -1.9728   -1.3312 O   0  0  0  0  0  0  0  0  0  0  0  0
    2.2679   -1.7679   -0.6430 H   0  0  0  0  0  0  0  0  0  0  0  0
    3.7952   -0.9788   -0.0320 H   0  0  0  0  0  0  0  0  0  0  0  0
    2.5585   -1.4487    1.1432 H   0  0  0  0  0  0  0  0  0  0  0  0
    2.3217    0.6030   -1.1306 H   0  0  0  0  0  0  0  0  0  0  0  0
    2.8877    2.0579    0.4566 H   0  0  0  0  0  0  0  0  0  0  0  0
    0.5731    1.6960    0.3491 H   0  0  0  0  0  0  0  0  0  0  0  0
    0.7381    0.3708    1.4984 H   0  0  0  0  0  0  0  0  0  0  0  0
   -1.5159    0.7849    1.1429 H   0  0  0  0  0  0  0  0  0  0  0  0
   -2.3884    0.0560   -0.3258 H   0  0  0  0  0  0  0  0  0  0  0  0
   -2.9013    3.6641   -0.7271 H   0  0  0  0  0  0  0  0  0  0  0  0
   -0.9564   -1.0156    1.4749 H   0  0  0  0  0  0  0  0  0  0  0  0
    0.3818   -1.8428    0.6944 H   0  0  0  0  0  0  0  0  0  0  0  0
   -3.2200   -2.2145   -1.4776 H   0  0  0  0  0  0  0  0  0  0  0  0
  1  2  1  0
  2  3  1  0
  2  4  1  0
  4  5  1  0
  5  6  1  0
  6  7  1  0
  7  8  2  0
  7  9  1  0
  5 10  1  0
 10 11  1  0
 11 12  2  0
 11 13  1  0
  1 14  1  0
  1 15  1  0
  1 16  1  0
  2 17  1  6
  3 18  1  0
  4 19  1  0
  4 20  1  0
  6 21  1  0
  6 22  1  0
  9 23  1  0
 10 24  1  0
 10 25  1  0
 13 26  1  0
M  END
$$$$

     RDKit          3D

 26 25  0  0  0  0  0  0  0  0999 V2000
   -2.7176   -0.3089   -0.0828 C   0  0  0  0  0  0  0  0  0  0  0  0
   -1.5546   -1.2701   -0.3029 C   0  0  2  0  0  0  0  0  0  0  0  0
   -2.1032   -2.5059    0.1967 O   0  0  0  0  0  0  0  0  0  0  0  0
   -0.3650   -0.9955    0.5424 C   0  0  0  0  0  0  0  0  0  0  0  0
    0.4443    0.1159    0.2841 N   0  0  0  0  0  0  0  0  0  0  0  0
    1.1718    0.0457   -0.9539 C   0  0  0  0  0  0  0  0  0  0  0  0
    2.2524   -0.9549   -0.8791 C   0  0  0  0  0  0  0  0  0  0  0  0
    3.0331   -1.1241   -1.8477 O   0  0  0  0  0  0  0  0  0  0  0  0
    2.4975   -1.7718    0.2259 O   0  0  0  0  0  0  0  0  0  0  0  0
    0.0584    1.3999    0.7009 C   0  0  0  0  0  0  0  0  0  0  0  0
    1.1349    2.3895    0.6592 C   0  0  0  0  0  0  0  0  0  0  0  0
    2.3309    2.0719    0.5378 O   0  0  0  0  0  0  0  0  0  0  0  0
    0.8818    3.7784    0.7555 O   0  0  0  0  0  0  0  0  0  0  0  0
   -3.6437   -0.8681   -0.4211 H   0  0  0  0  0  0  0  0  0  0  0  0
   -2.6592    0.6270   -0.6216 H   0  0  0  0  0  0  0  0  0  0  0  0
   -2.8288   -0.1598    1.0147 H   0  0  0  0  0  0  0  0  0  0  0  0
   -1.3532   -1.4265   -1.3630 H   0  0  0  0  0  0  0  0  0  0  0  0
   -2.0624   -2.4054    1.1908 H   0  0  0  0  0  0  0  0  0  0  0  0
    0.2583   -1.9211    0.6052 H   0  0  0  0  0  0  0  0  0  0  0  0
   -0.7732   -0.8459    1.5987 H   0  0  0  0  0  0  0  0  0  0  0  0
    1.5542    1.0214   -1.2289 H   0  0  0  0  0  0  0  0  0  0  0  0
    0.4826   -0.3042   -1.7891 H   0  0  0  0  0  0  0  0  0  0  0  0
    3.4083   -2.1417    0.4530 H   0  0  0  0  0  0  0  0  0  0  0  0
   -0.7974    1.7793    0.0570 H   0  0  0  0  0  0  0  0  0  0  0  0
   -0.2981    1.3320    1.7678 H   0  0  0  0  0  0  0  0  0  0  0  0
    1.6480    4.4428    0.5838 H   0  0  0  0  0  0  0  0  0  0  0  0
  1  2  1  0
  2  3  1  0
  2  4  1  0
  4  5  1  0
  5  6  1  0
  6  7  1  0
  7  8  2  0
  7  9  1  0
  5 10  1  0
 10 11  1  0
 11 12  2  0
 11 13  1  0
  1 14  1  0
  1 15  1  0
  1 16  1  0
  2 17  1  6
  3 18  1  0
  4 19  1  0
  4 20  1  0
  6 21  1  0
  6 22  1  0
  9 23  1  0
 10 24  1  0
 10 25  1  0
 13 26  1  0
M  END
$$$$

     RDKit          3D

 26 25  0  0  0  0  0  0  0  0999 V2000
   -0.0561    2.8866   -0.7431 C   0  0  0  0  0  0  0  0  0  0  0  0
   -0.6040    1.6478    0.0081 C   0  0  2  0  0  0  0  0  0  0  0  0
   -0.8030    1.9622    1.3416 O   0  0  0  0  0  0  0  0  0  0  0  0
    0.4089    0.5749   -0.2106 C   0  0  0  0  0  0  0  0  0  0  0  0
    0.2091   -0.7063    0.2995 N   0  0  0  0  0  0  0  0  0  0  0  0
   -0.7647   -1.5723   -0.1825 C   0  0  0  0  0  0  0  0  0  0  0  0
   -2.1488   -1.2422    0.1809 C   0  0  0  0  0  0  0  0  0  0  0  0
   -2.3804   -0.5510    1.2065 O   0  0  0  0  0  0  0  0  0  0  0  0
   -3.2069   -1.7017   -0.6224 O   0  0  0  0  0  0  0  0  0  0  0  0
    1.2832   -1.3096    1.0369 C   0  0  0  0  0  0  0  0  0  0  0  0
    2.4666   -1.6426    0.2466 C   0  0  0  0  0  0  0  0  0  0  0  0
    3.4096   -2.2802    0.7813 O   0  0  0  0  0  0  0  0  0  0  0  0
    2.6112   -1.2865   -1.0859 O   0  0  0  0  0  0  0  0  0  0  0  0
   -0.9196    3.4014   -1.2097 H   0  0  0  0  0  0  0  0  0  0  0  0
    0.4337    3.5357    0.0086 H   0  0  0  0  0  0  0  0  0  0  0  0
    0.6558    2.5848   -1.5237 H   0  0  0  0  0  0  0  0  0  0  0  0
   -1.6016    1.4014   -0.4305 H   0  0  0  0  0  0  0  0  0  0  0  0
   -1.7411    2.1177    1.5768 H   0  0  0  0  0  0  0  0  0  0  0  0
    1.3636    0.9678    0.2877 H   0  0  0  0  0  0  0  0  0  0  0  0
    0.6918    0.6079   -1.2993 H   0  0  0  0  0  0  0  0  0  0  0  0
   -0.7021   -1.7821   -1.2874 H   0  0  0  0  0  0  0  0  0  0  0  0
   -0.5831   -2.6005    0.2789 H   0  0  0  0  0  0  0  0  0  0  0  0
   -4.0655   -1.1686   -0.5201 H   0  0  0  0  0  0  0  0  0  0  0  0
    1.6044   -0.5334    1.7979 H   0  0  0  0  0  0  0  0  0  0  0  0
    0.9006   -2.2134    1.5465 H   0  0  0  0  0  0  0  0  0  0  0  0
    3.5383   -1.0980   -1.4828 H   0  0  0  0  0  0  0  0  0  0  0  0
  1  2  1  0
  2  3  1  0
  2  4  1  0
  4  5  1  0
  5  6  1  0
  6  7  1  0
  7  8  2  0
  7  9  1  0
  5 10  1  0
 10 11  1  0
 11 12  2  0
 11 13  1  0
  1 14  1  0
  1 15  1  0
  1 16  1  0
  2 17  1  6
  3 18  1  0
  4 19  1  0
  4 20  1  0
  6 21  1  0
  6 22  1  0
  9 23  1  0
 10 24  1  0
 10 25  1  0
 13 26  1  0
M  END
$$$$

     RDKit          3D

 26 25  0  0  0  0  0  0  0  0999 V2000
    3.3085   -0.1409   -0.4061 C   0  0  0  0  0  0  0  0  0  0  0  0
    1.9777    0.4599    0.0858 C   0  0  2  0  0  0  0  0  0  0  0  0
    2.0677    0.5605    1.4634 O   0  0  0  0  0  0  0  0  0  0  0  0
    0.8391   -0.4192   -0.2968 C   0  0  0  0  0  0  0  0  0  0  0  0
   -0.4345    0.0637    0.1861 N   0  0  0  0  0  0  0  0  0  0  0  0
   -1.5008   -0.8289   -0.2203 C   0  0  0  0  0  0  0  0  0  0  0  0
   -1.5063   -2.1173    0.4498 C   0  0  0  0  0  0  0  0  0  0  0  0
   -0.6907   -2.3764    1.3581 O   0  0  0  0  0  0  0  0  0  0  0  0
   -2.4141   -3.0864    0.0999 O   0  0  0  0  0  0  0  0  0  0  0  0
   -0.7423    1.3677   -0.3337 C   0  0  0  0  0  0  0  0  0  0  0  0
   -1.9498    1.9652    0.2666 C   0  0  0  0  0  0  0  0  0  0  0  0
   -2.5574    1.4332    1.2235 O   0  0  0  0  0  0  0  0  0  0  0  0
   -2.4943    3.1709   -0.2009 O   0  0  0  0  0  0  0  0  0  0  0  0
    3.1343   -0.5908   -1.4088 H   0  0  0  0  0  0  0  0  0  0  0  0
    4.0971    0.6225   -0.4144 H   0  0  0  0  0  0  0  0  0  0  0  0
    3.5929   -0.9274    0.3160 H   0  0  0  0  0  0  0  0  0  0  0  0
    1.9745    1.4787   -0.3339 H   0  0  0  0  0  0  0  0  0  0  0  0
    2.2946   -0.3243    1.8243 H   0  0  0  0  0  0  0  0  0  0  0  0
    1.0399   -1.4089    0.1927 H   0  0  0  0  0  0  0  0  0  0  0  0
    0.8259   -0.5343   -1.3973 H   0  0  0  0  0  0  0  0  0  0  0  0
   -2.4465   -0.2684   -0.2168 H   0  0  0  0  0  0  0  0  0  0  0  0
   -1.3017   -1.0136   -1.3220 H   0  0  0  0  0  0  0  0  0  0  0  0
   -2.7475   -3.8132    0.6958 H   0  0  0  0  0  0  0  0  0  0  0  0
   -0.9647    1.2561   -1.4321 H   0  0  0  0  0  0  0  0  0  0  0  0
    0.0699    2.1065   -0.1722 H   0  0  0  0  0  0  0  0  0  0  0  0
   -3.4714    3.3650   -0.0069 H   0  0  0  0  0  0  0  0  0  0  0  0
  1  2  1  0
  2  3  1  0
  2  4  1  0
  4  5  1  0
  5  6  1  0
  6  7  1  0
  7  8  2  0
  7  9  1  0
  5 10  1  0
 10 11  1  0
 11 12  2  0
 11 13  1  0
  1 14  1  0
  1 15  1  0
  1 16  1  0
  2 17  1  6
  3 18  1  0
  4 19  1  0
  4 20  1  0
  6 21  1  0
  6 22  1  0
  9 23  1  0
 10 24  1  0
 10 25  1  0
 13 26  1  0
M  END
$$$$
