
     RDKit          3D

 20 20  0  0  0  0  0  0  0  0999 V2000
    1.4791    0.6111   -0.7993 C   0  0  0  0  0  0  0  0  0  0  0  0
    1.1446   -0.3187    0.3165 C   0  0  1  0  0  0  0  0  0  0  0  0
    1.9257    0.0173    1.4245 O   0  0  0  0  0  0  0  0  0  0  0  0
   -0.3152   -0.3742    0.6581 C   0  0  1  0  0  0  0  0  0  0  0  0
   -0.8823    0.9520    1.0837 C   0  0  0  0  0  0  0  0  0  0  0  0
   -1.2381    1.5466   -0.1686 N   0  0  0  0  0  0  0  0  0  0  0  0
   -1.5750    0.5029   -1.0302 N   0  0  0  0  0  0  0  0  0  0  0  0
   -1.0681   -0.6175   -0.5972 C   0  0  0  0  0  0  0  0  0  0  0  0
   -1.1925   -1.8984   -1.2026 N   0  0  0  0  0  0  0  0  0  0  0  0
    0.7435    0.6424   -1.6130 H   0  0  0  0  0  0  0  0  0  0  0  0
    1.7249    1.6481   -0.4417 H   0  0  0  0  0  0  0  0  0  0  0  0
    2.4371    0.2405   -1.2648 H   0  0  0  0  0  0  0  0  0  0  0  0
    1.4504   -1.3422    0.0157 H   0  0  0  0  0  0  0  0  0  0  0  0
    1.6196   -0.5649    2.1862 H   0  0  0  0  0  0  0  0  0  0  0  0
   -0.4708   -1.1475    1.4136 H   0  0  0  0  0  0  0  0  0  0  0  0
   -0.2266    1.5470    1.7154 H   0  0  0  0  0  0  0  0  0  0  0  0
   -1.8505    0.7203    1.6167 H   0  0  0  0  0  0  0  0  0  0  0  0
   -1.2504    2.5572   -0.4113 H   0  0  0  0  0  0  0  0  0  0  0  0
   -1.5659   -2.7326   -0.7087 H   0  0  0  0  0  0  0  0  0  0  0  0
   -0.8896   -1.9894   -2.1929 H   0  0  0  0  0  0  0  0  0  0  0  0
  1  2  1  0
  2  3  1  0
  2  4  1  0
  4  5  1  0
  5  6  1  0
  6  7  1  0
  7  8  2  0
  8  9  1  0
  8  4  1  0
  1 10  1  0
  1 11  1  0
  1 12  1  0
  2 13  1  6
  3 14  1  0
  4 15  1  1
  5 16  1  0
  5 17  1  0
  6 18  1  0
  9 19  1  0
  9 20  1  0
M  END
$$$$

     RDKit          3D

 20 20  0  0  0  0  0  0  0  0999 V2000
    1.5181    1.2199    0.8456 C   0  0  0  0  0  0  0  0  0  0  0  0
    1.1313    0.1260   -0.0904 C   0  0  1  0  0  0  0  0  0  0  0  0
    1.3650   -1.1174    0.4875 O   0  0  0  0  0  0  0  0  0  0  0  0
   -0.2683    0.2461   -0.6221 C   0  0  1  0  0  0  0  0  0  0  0  0
   -0.5270   -0.9239   -1.5548 C   0  0  0  0  0  0  0  0  0  0  0  0
   -1.1982   -1.8541   -0.6634 N   0  0  0  0  0  0  0  0  0  0  0  0
   -1.8225   -1.0975    0.3524 N   0  0  0  0  0  0  0  0  0  0  0  0
   -1.3096    0.0927    0.3904 C   0  0  0  0  0  0  0  0  0  0  0  0
   -1.7430    1.0805    1.3184 N   0  0  0  0  0  0  0  0  0  0  0  0
    2.6391    1.1636    0.9692 H   0  0  0  0  0  0  0  0  0  0  0  0
    1.1144    1.0909    1.8716 H   0  0  0  0  0  0  0  0  0  0  0  0
    1.3113    2.2143    0.4378 H   0  0  0  0  0  0  0  0  0  0  0  0
    1.8145    0.1885   -0.9835 H   0  0  0  0  0  0  0  0  0  0  0  0
    2.1353   -1.5922    0.0801 H   0  0  0  0  0  0  0  0  0  0  0  0
   -0.4017    1.1834   -1.1897 H   0  0  0  0  0  0  0  0  0  0  0  0
   -1.1687   -0.6088   -2.3880 H   0  0  0  0  0  0  0  0  0  0  0  0
    0.4236   -1.3979   -1.8716 H   0  0  0  0  0  0  0  0  0  0  0  0
   -1.2093   -2.8930   -0.7666 H   0  0  0  0  0  0  0  0  0  0  0  0
   -1.7044    0.8586    2.3345 H   0  0  0  0  0  0  0  0  0  0  0  0
   -2.0998    2.0205    1.0427 H   0  0  0  0  0  0  0  0  0  0  0  0
  1  2  1  0
  2  3  1  0
  2  4  1  0
  4  5  1  0
  5  6  1  0
  6  7  1  0
  7  8  2  0
  8  9  1  0
  8  4  1  0
  1 10  1  0
  1 11  1  0
  1 12  1  0
  2 13  1  6
  3 14  1  0
  4 15  1  6
  5 16  1  0
  5 17  1  0
  6 18  1  0
  9 19  1  0
  9 20  1  0
M  END
$$$$

     RDKit          3D

 20 20  0  0  0  0  0  0  0  0999 V2000
    1.8294    0.7871   -0.8300 C   0  0  0  0  0  0  0  0  0  0  0  0
    1.1492   -0.3731   -0.1772 C   0  0  1  0  0  0  0  0  0  0  0  0
    1.3577   -0.4312    1.1931 O   0  0  0  0  0  0  0  0  0  0  0  0
   -0.3226   -0.4496   -0.4543 C   0  0  1  0  0  0  0  0  0  0  0  0
   -0.8623   -1.6667    0.2695 C   0  0  0  0  0  0  0  0  0  0  0  0
   -2.2411   -1.2523    0.4728 N   0  0  0  0  0  0  0  0  0  0  0  0
   -2.1885    0.1173    0.6818 N   0  0  0  0  0  0  0  0  0  0  0  0
   -1.1034    0.6225    0.1664 C   0  0  0  0  0  0  0  0  0  0  0  0
   -0.8289    2.0143    0.2560 N   0  0  0  0  0  0  0  0  0  0  0  0
    1.6316    0.7339   -1.9140 H   0  0  0  0  0  0  0  0  0  0  0  0
    2.9334    0.6262   -0.7167 H   0  0  0  0  0  0  0  0  0  0  0  0
    1.6115    1.7616   -0.3953 H   0  0  0  0  0  0  0  0  0  0  0  0
    1.6059   -1.3039   -0.6072 H   0  0  0  0  0  0  0  0  0  0  0  0
    1.6263    0.4260    1.5869 H   0  0  0  0  0  0  0  0  0  0  0  0
   -0.5658   -0.4822   -1.5252 H   0  0  0  0  0  0  0  0  0  0  0  0
   -0.7639   -2.5862   -0.3031 H   0  0  0  0  0  0  0  0  0  0  0  0
   -0.3638   -1.7084    1.2723 H   0  0  0  0  0  0  0  0  0  0  0  0
   -3.0495   -1.9110    0.4509 H   0  0  0  0  0  0  0  0  0  0  0  0
   -0.2260    2.3988    1.0118 H   0  0  0  0  0  0  0  0  0  0  0  0
   -1.2293    2.6768   -0.4383 H   0  0  0  0  0  0  0  0  0  0  0  0
  1  2  1  0
  2  3  1  0
  2  4  1  0
  4  5  1  0
  5  6  1  0
  6  7  1  0
  7  8  2  0
  8  9  1  0
  8  4  1  0
  1 10  1  0
  1 11  1  0
  1 12  1  0
  2 13  1  6
  3 14  1  0
  4 15  1  6
  5 16  1  0
  5 17  1  0
  6 18  1  0
  9 19  1  0
  9 20  1  0
M  END
$$$$

     RDKit          3D

 20 20  0  0  0  0  0  0  0  0999 V2000
    2.0012   -1.0046    0.0350 C   0  0  0  0  0  0  0  0  0  0  0  0
    1.0177    0.0758    0.3117 C   0  0  1  0  0  0  0  0  0  0  0  0
    1.6137    1.3023   -0.0304 O   0  0  0  0  0  0  0  0  0  0  0  0
   -0.2549   -0.0246   -0.4790 C   0  0  1  0  0  0  0  0  0  0  0  0
   -1.0065   -1.3028   -0.2286 C   0  0  0  0  0  0  0  0  0  0  0  0
   -1.6684   -0.9976    1.0245 N   0  0  0  0  0  0  0  0  0  0  0  0
   -1.9851    0.3719    0.9410 N   0  0  0  0  0  0  0  0  0  0  0  0
   -1.2093    0.9618    0.1010 C   0  0  0  0  0  0  0  0  0  0  0  0
   -1.2142    2.3302   -0.2570 N   0  0  0  0  0  0  0  0  0  0  0  0
    2.8644   -0.6265   -0.5860 H   0  0  0  0  0  0  0  0  0  0  0  0
    2.4733   -1.2866    1.0211 H   0  0  0  0  0  0  0  0  0  0  0  0
    1.6085   -1.8780   -0.4960 H   0  0  0  0  0  0  0  0  0  0  0  0
    0.7352    0.1408    1.3864 H   0  0  0  0  0  0  0  0  0  0  0  0
    1.5948    1.3279   -1.0413 H   0  0  0  0  0  0  0  0  0  0  0  0
   -0.0909    0.1767   -1.5576 H   0  0  0  0  0  0  0  0  0  0  0  0
   -0.3840   -2.1964   -0.1952 H   0  0  0  0  0  0  0  0  0  0  0  0
   -1.8148   -1.3564   -1.0006 H   0  0  0  0  0  0  0  0  0  0  0  0
   -1.8571   -1.6687    1.8050 H   0  0  0  0  0  0  0  0  0  0  0  0
   -1.5630    2.6205   -1.1722 H   0  0  0  0  0  0  0  0  0  0  0  0
   -0.8608    3.0344    0.4180 H   0  0  0  0  0  0  0  0  0  0  0  0
  1  2  1  0
  2  3  1  0
  2  4  1  0
  4  5  1  0
  5  6  1  0
  6  7  1  0
  7  8  2  0
  8  9  1  0
  8  4  1  0
  1 10  1  0
  1 11  1  0
  1 12  1  0
  2 13  1  1
  3 14  1  0
  4 15  1  6
  5 16  1  0
  5 17  1  0
  6 18  1  0
  9 19  1  0
  9 20  1  0
M  END
$$$$

     RDKit          3D

 20 20  0  0  0  0  0  0  0  0999 V2000
   -1.3558   -1.5211   -0.1998 C   0  0  0  0  0  0  0  0  0  0  0  0
   -1.1653   -0.1082    0.3355 C   0  0  1  0  0  0  0  0  0  0  0  0
   -0.9492   -0.1490    1.6869 O   0  0  0  0  0  0  0  0  0  0  0  0
   -0.0512    0.5217   -0.4484 C   0  0  1  0  0  0  0  0  0  0  0  0
    0.1535    1.9270    0.0690 C   0  0  0  0  0  0  0  0  0  0  0  0
    1.5934    2.0812   -0.1764 N   0  0  0  0  0  0  0  0  0  0  0  0
    2.1365    0.7957   -0.1272 N   0  0  0  0  0  0  0  0  0  0  0  0
    1.2464   -0.1066   -0.2756 C   0  0  0  0  0  0  0  0  0  0  0  0
    1.5275   -1.4877   -0.2662 N   0  0  0  0  0  0  0  0  0  0  0  0
   -1.1591   -1.4906   -1.2925 H   0  0  0  0  0  0  0  0  0  0  0  0
   -0.6701   -2.2158    0.2875 H   0  0  0  0  0  0  0  0  0  0  0  0
   -2.4021   -1.8692   -0.0270 H   0  0  0  0  0  0  0  0  0  0  0  0
   -2.1051    0.4258    0.1457 H   0  0  0  0  0  0  0  0  0  0  0  0
   -1.3905   -0.9649    2.0398 H   0  0  0  0  0  0  0  0  0  0  0  0
   -0.2873    0.5791   -1.5260 H   0  0  0  0  0  0  0  0  0  0  0  0
   -0.4368    2.6489   -0.5054 H   0  0  0  0  0  0  0  0  0  0  0  0
   -0.0144    2.0153    1.1539 H   0  0  0  0  0  0  0  0  0  0  0  0
    2.0521    2.9899   -0.3452 H   0  0  0  0  0  0  0  0  0  0  0  0
    1.7420   -2.0231    0.6228 H   0  0  0  0  0  0  0  0  0  0  0  0
    1.5355   -2.0483   -1.1513 H   0  0  0  0  0  0  0  0  0  0  0  0
  1  2  1  0
  2  3  1  0
  2  4  1  0
  4  5  1  0
  5  6  1  0
  6  7  1  0
  7  8  2  0
  8  9  1  0
  8  4  1  0
  1 10  1  0
  1 11  1  0
  1 12  1  0
  2 13  1  1
  3 14  1  0
  4 15  1  6
  5 16  1  0
  5 17  1  0
  6 18  1  0
  9 19  1  0
  9 20  1  0
M  END
$$$$

     RDKit          3D

 20 20  0  0  0  0  0  0  0  0999 V2000
   -1.4053   -1.2139    1.0187 C   0  0  0  0  0  0  0  0  0  0  0  0
   -1.1342   -0.2582   -0.0875 C   0  0  1  0  0  0  0  0  0  0  0  0
   -1.3795    1.0792    0.2901 O   0  0  0  0  0  0  0  0  0  0  0  0
    0.2765   -0.3053   -0.6018 C   0  0  1  0  0  0  0  0  0  0  0  0
    0.4947    0.6845   -1.7223 C   0  0  0  0  0  0  0  0  0  0  0  0
    1.0848    1.8168   -1.0343 N   0  0  0  0  0  0  0  0  0  0  0  0
    1.6878    1.3127    0.1195 N   0  0  0  0  0  0  0  0  0  0  0  0
    1.2688    0.1361    0.3978 C   0  0  0  0  0  0  0  0  0  0  0  0
    1.7220   -0.6089    1.5238 N   0  0  0  0  0  0  0  0  0  0  0  0
   -0.5353   -1.4872    1.6187 H   0  0  0  0  0  0  0  0  0  0  0  0
   -1.9205   -2.1502    0.6597 H   0  0  0  0  0  0  0  0  0  0  0  0
   -2.1508   -0.7376    1.7109 H   0  0  0  0  0  0  0  0  0  0  0  0
   -1.8107   -0.4884   -0.9363 H   0  0  0  0  0  0  0  0  0  0  0  0
   -2.3286    1.3049    0.2434 H   0  0  0  0  0  0  0  0  0  0  0  0
    0.5454   -1.3145   -0.9553 H   0  0  0  0  0  0  0  0  0  0  0  0
    1.2030    0.2639   -2.4691 H   0  0  0  0  0  0  0  0  0  0  0  0
   -0.4366    0.9755   -2.2115 H   0  0  0  0  0  0  0  0  0  0  0  0
    1.0301    2.7920   -1.3912 H   0  0  0  0  0  0  0  0  0  0  0  0
    2.1389   -1.5659    1.3494 H   0  0  0  0  0  0  0  0  0  0  0  0
    1.6495   -0.2356    2.4774 H   0  0  0  0  0  0  0  0  0  0  0  0
  1  2  1  0
  2  3  1  0
  2  4  1  0
  4  5  1  0
  5  6  1  0
  6  7  1  0
  7  8  2  0
  8  9  1  0
  8  4  1  0
  1 10  1  0
  1 11  1  0
  1 12  1  0
  2 13  1  6
  3 14  1  0
  4 15  1  6
  5 16  1  0
  5 17  1  0
  6 18  1  0
  9 19  1  0
  9 20  1  0
M  END
$$$$

     RDKit          3D

 20 20  0  0  0  0  0  0  0  0999 V2000
   -1.4591   -1.5008   -0.6544 C   0  0  0  0  0  0  0  0  0  0  0  0
   -1.1572   -0.1253   -0.1885 C   0  0  1  0  0  0  0  0  0  0  0  0
   -1.4883    0.0061    1.1496 O   0  0  0  0  0  0  0  0  0  0  0  0
    0.2286    0.3599   -0.4793 C   0  0  1  0  0  0  0  0  0  0  0  0
    0.2863    1.7865    0.0950 C   0  0  0  0  0  0  0  0  0  0  0  0
    1.7166    1.8841    0.3192 N   0  0  0  0  0  0  0  0  0  0  0  0
    2.1129    0.6149    0.7088 N   0  0  0  0  0  0  0  0  0  0  0  0
    1.2922   -0.2899    0.2751 C   0  0  0  0  0  0  0  0  0  0  0  0
    1.4862   -1.6735    0.5463 N   0  0  0  0  0  0  0  0  0  0  0  0
   -2.5495   -1.5660   -0.8635 H   0  0  0  0  0  0  0  0  0  0  0  0
   -1.2616   -2.2731    0.1266 H   0  0  0  0  0  0  0  0  0  0  0  0
   -0.9561   -1.7440   -1.6185 H   0  0  0  0  0  0  0  0  0  0  0  0
   -1.8529    0.5742   -0.7431 H   0  0  0  0  0  0  0  0  0  0  0  0
   -1.9796    0.8420    1.3452 H   0  0  0  0  0  0  0  0  0  0  0  0
    0.4403    0.4654   -1.5467 H   0  0  0  0  0  0  0  0  0  0  0  0
   -0.0841    2.5270   -0.6262 H   0  0  0  0  0  0  0  0  0  0  0  0
   -0.2038    1.8138    1.0774 H   0  0  0  0  0  0  0  0  0  0  0  0
    2.2941    2.7580    0.1990 H   0  0  0  0  0  0  0  0  0  0  0  0
    1.1243   -2.4370   -0.0727 H   0  0  0  0  0  0  0  0  0  0  0  0
    2.0105   -2.0225    1.3937 H   0  0  0  0  0  0  0  0  0  0  0  0
  1  2  1  0
  2  3  1  0
  2  4  1  0
  4  5  1  0
  5  6  1  0
  6  7  1  0
  7  8  2  0
  8  9  1  0
  8  4  1  0
  1 10  1  0
  1 11  1  0
  1 12  1  0
  2 13  1  6
  3 14  1  0
  4 15  1  6
  5 16  1  0
  5 17  1  0
  6 18  1  0
  9 19  1  0
  9 20  1  0
M  END
$$$$

     RDKit          3D

 20 20  0  0  0  0  0  0  0  0999 V2000
    1.6122   -0.6925   -0.6919 C   0  0  0  0  0  0  0  0  0  0  0  0
    0.8693   -0.7889    0.6055 C   0  0  1  0  0  0  0  0  0  0  0  0
    1.7256   -0.3097    1.6093 O   0  0  0  0  0  0  0  0  0  0  0  0
   -0.3728    0.0618    0.6372 C   0  0  1  0  0  0  0  0  0  0  0  0
   -0.1013    1.5142    0.4412 C   0  0  0  0  0  0  0  0  0  0  0  0
   -1.2273    1.9395   -0.3685 N   0  0  0  0  0  0  0  0  0  0  0  0
   -1.7842    0.8136   -0.9565 N   0  0  0  0  0  0  0  0  0  0  0  0
   -1.3306   -0.2644   -0.4203 C   0  0  0  0  0  0  0  0  0  0  0  0
   -1.7266   -1.5649   -0.8241 N   0  0  0  0  0  0  0  0  0  0  0  0
    2.1301    0.2952   -0.7862 H   0  0  0  0  0  0  0  0  0  0  0  0
    2.3968   -1.4803   -0.6881 H   0  0  0  0  0  0  0  0  0  0  0  0
    0.9738   -0.9012   -1.5789 H   0  0  0  0  0  0  0  0  0  0  0  0
    0.6723   -1.8396    0.8392 H   0  0  0  0  0  0  0  0  0  0  0  0
    1.5785    0.6782    1.6571 H   0  0  0  0  0  0  0  0  0  0  0  0
   -0.8892   -0.0600    1.6108 H   0  0  0  0  0  0  0  0  0  0  0  0
    0.8690    1.7218   -0.0512 H   0  0  0  0  0  0  0  0  0  0  0  0
   -0.1137    2.0477    1.4054 H   0  0  0  0  0  0  0  0  0  0  0  0
   -1.5319    2.9322   -0.4642 H   0  0  0  0  0  0  0  0  0  0  0  0
   -1.8100   -1.7845   -1.8389 H   0  0  0  0  0  0  0  0  0  0  0  0
   -1.9401   -2.3185   -0.1369 H   0  0  0  0  0  0  0  0  0  0  0  0
  1  2  1  0
  2  3  1  0
  2  4  1  0
  4  5  1  0
  5  6  1  0
  6  7  1  0
  7  8  2  0
  8  9  1  0
  8  4  1  0
  1 10  1  0
  1 11  1  0
  1 12  1  0
  2 13  1  1
  3 14  1  0
  4 15  1  1
  5 16  1  0
  5 17  1  0
  6 18  1  0
  9 19  1  0
  9 20  1  0
M  END
$$$$
