
     RDKit          3D

 18 19  0  0  0  0  0  0  0  0999 V2000
    2.8065    0.0482   -1.3957 N   0  0  0  0  0  0  0  0  0  0  0  0
    1.6588    0.3096   -0.5717 C   0  0  0  0  0  0  0  0  0  0  0  0
    1.7799    0.9814    0.5282 N   0  0  0  0  0  0  0  0  0  0  0  0
    0.6953    1.2825    1.3946 C   0  0  0  0  0  0  0  0  0  0  0  0
    0.8200    1.9272    2.4498 O   0  0  0  0  0  0  0  0  0  0  0  0
   -0.6454    0.7852    0.9863 C   0  0  0  0  0  0  0  0  0  0  0  0
   -1.8545    1.0748    1.2219 N   0  0  0  0  0  0  0  0  0  0  0  0
   -2.7364    0.2249    0.5076 C   0  0  0  0  0  0  0  0  0  0  0  0
   -4.0103    0.2501    0.5312 O   0  0  0  0  0  0  0  0  0  0  0  0
   -1.9251   -0.6746   -0.2515 N   0  0  0  0  0  0  0  0  0  0  0  0
   -0.5814   -0.4475    0.1071 C   0  0  2  0  0  0  0  0  0  0  0  0
   -0.0494   -1.4880    0.8928 O   0  0  0  0  0  0  0  0  0  0  0  0
    0.3687   -0.1798   -0.9380 N   0  0  0  0  0  0  0  0  0  0  0  0
    3.1682   -0.9148   -1.5695 H   0  0  0  0  0  0  0  0  0  0  0  0
    3.3213    0.8317   -1.8531 H   0  0  0  0  0  0  0  0  0  0  0  0
   -2.3339   -1.3763   -0.9563 H   0  0  0  0  0  0  0  0  0  0  0  0
   -0.6145   -2.3003    0.8358 H   0  0  0  0  0  0  0  0  0  0  0  0
    0.1325   -0.3344   -1.9193 H   0  0  0  0  0  0  0  0  0  0  0  0
  1  2  1  0
  2  3  2  0
  3  4  1  0
  4  5  2  0
  4  6  1  0
  6  7  2  0
  7  8  1  0
  8  9  2  0
  8 10  1  0
 10 11  1  0
 11 12  1  1
 11 13  1  0
 13  2  1  0
 11  6  1  0
  1 14  1  0
  1 15  1  0
 10 16  1  0
 12 17  1  0
 13 18  1  0
M  END
$$$$

     RDKit          3D

 18 19  0  0  0  0  0  0  0  0999 V2000
    3.0333   -0.5880   -0.4635 N   0  0  0  0  0  0  0  0  0  0  0  0
    1.7448    0.0389   -0.2618 C   0  0  0  0  0  0  0  0  0  0  0  0
    1.6804    1.2526    0.1465 N   0  0  0  0  0  0  0  0  0  0  0  0
    0.4551    1.9378    0.3677 C   0  0  0  0  0  0  0  0  0  0  0  0
    0.3729    3.1221    0.7655 O   0  0  0  0  0  0  0  0  0  0  0  0
   -0.7955    1.1772    0.1014 C   0  0  0  0  0  0  0  0  0  0  0  0
   -1.9985    1.4366   -0.1715 N   0  0  0  0  0  0  0  0  0  0  0  0
   -2.7641    0.2497   -0.3326 C   0  0  0  0  0  0  0  0  0  0  0  0
   -4.0055    0.1798   -0.6059 O   0  0  0  0  0  0  0  0  0  0  0  0
   -1.8637   -0.8338   -0.1268 N   0  0  0  0  0  0  0  0  0  0  0  0
   -0.6139   -0.2960    0.2386 C   0  0  2  0  0  0  0  0  0  0  0  0
   -0.4262   -0.5358    1.6103 O   0  0  0  0  0  0  0  0  0  0  0  0
    0.5439   -0.7128   -0.5185 N   0  0  0  0  0  0  0  0  0  0  0  0
    3.4383   -1.2017    0.2757 H   0  0  0  0  0  0  0  0  0  0  0  0
    3.5859   -0.4532   -1.3279 H   0  0  0  0  0  0  0  0  0  0  0  0
   -2.1816   -1.8353   -0.2537 H   0  0  0  0  0  0  0  0  0  0  0  0
   -0.7801   -1.4624    1.7568 H   0  0  0  0  0  0  0  0  0  0  0  0
    0.5745   -1.4759   -1.2003 H   0  0  0  0  0  0  0  0  0  0  0  0
  1  2  1  0
  2  3  2  0
  3  4  1  0
  4  5  2  0
  4  6  1  0
  6  7  2  0
  7  8  1  0
  8  9  2  0
  8 10  1  0
 10 11  1  0
 11 12  1  1
 11 13  1  0
 13  2  1  0
 11  6  1  0
  1 14  1  0
  1 15  1  0
 10 16  1  0
 12 17  1  0
 13 18  1  0
M  END
$$$$

     RDKit          3D

 18 19  0  0  0  0  0  0  0  0999 V2000
    2.8781   -0.3944    1.1319 N   0  0  0  0  0  0  0  0  0  0  0  0
    1.6339    0.0902    0.6697 C   0  0  0  0  0  0  0  0  0  0  0  0
    1.2229    1.2641    1.0735 N   0  0  0  0  0  0  0  0  0  0  0  0
   -0.0041    1.8323    0.6635 C   0  0  0  0  0  0  0  0  0  0  0  0
   -0.4370    2.9495    1.0259 O   0  0  0  0  0  0  0  0  0  0  0  0
   -0.8162    1.0206   -0.2654 C   0  0  0  0  0  0  0  0  0  0  0  0
   -1.7240    1.2178   -1.1270 N   0  0  0  0  0  0  0  0  0  0  0  0
   -2.1505    0.0222   -1.7538 C   0  0  0  0  0  0  0  0  0  0  0  0
   -3.0357   -0.1341   -2.6464 O   0  0  0  0  0  0  0  0  0  0  0  0
   -1.3748   -1.0212   -1.1791 N   0  0  0  0  0  0  0  0  0  0  0  0
   -0.5756   -0.4462   -0.1518 C   0  0  2  0  0  0  0  0  0  0  0  0
   -1.0859   -0.8812    1.1140 O   0  0  0  0  0  0  0  0  0  0  0  0
    0.8348   -0.7009   -0.2002 N   0  0  0  0  0  0  0  0  0  0  0  0
    3.0280   -0.5752    2.1392 H   0  0  0  0  0  0  0  0  0  0  0  0
    3.6341   -0.5658    0.4563 H   0  0  0  0  0  0  0  0  0  0  0  0
   -1.4324   -2.0284   -1.5080 H   0  0  0  0  0  0  0  0  0  0  0  0
   -1.8342   -0.2541    1.3677 H   0  0  0  0  0  0  0  0  0  0  0  0
    1.2387   -1.3954   -0.8102 H   0  0  0  0  0  0  0  0  0  0  0  0
  1  2  1  0
  2  3  2  0
  3  4  1  0
  4  5  2  0
  4  6  1  0
  6  7  2  0
  7  8  1  0
  8  9  2  0
  8 10  1  0
 10 11  1  0
 11 12  1  1
 11 13  1  0
 13  2  1  0
 11  6  1  0
  1 14  1  0
  1 15  1  0
 10 16  1  0
 12 17  1  0
 13 18  1  0
M  END
$$$$

     RDKit          3D

 18 19  0  0  0  0  0  0  0  0999 V2000
    3.0402    0.1548   -0.8083 N   0  0  0  0  0  0  0  0  0  0  0  0
    1.6634    0.4298   -0.4869 C   0  0  0  0  0  0  0  0  0  0  0  0
    1.3137    1.5956   -0.1342 N   0  0  0  0  0  0  0  0  0  0  0  0
   -0.0408    1.9488    0.2001 C   0  0  0  0  0  0  0  0  0  0  0  0
   -0.3847    3.0990    0.5494 O   0  0  0  0  0  0  0  0  0  0  0  0
   -1.0422    0.8807    0.1156 C   0  0  0  0  0  0  0  0  0  0  0  0
   -2.2913    0.8026   -0.0382 N   0  0  0  0  0  0  0  0  0  0  0  0
   -2.7206   -0.5647   -0.0506 C   0  0  0  0  0  0  0  0  0  0  0  0
   -3.9125   -0.9763   -0.1818 O   0  0  0  0  0  0  0  0  0  0  0  0
   -1.5376   -1.3626    0.1142 N   0  0  0  0  0  0  0  0  0  0  0  0
   -0.4506   -0.4971    0.3148 C   0  0  2  0  0  0  0  0  0  0  0  0
    0.0183   -0.6087    1.6348 O   0  0  0  0  0  0  0  0  0  0  0  0
    0.6959   -0.6275   -0.5515 N   0  0  0  0  0  0  0  0  0  0  0  0
    3.7390    0.8981   -0.7470 H   0  0  0  0  0  0  0  0  0  0  0  0
    3.3348   -0.7968   -1.1039 H   0  0  0  0  0  0  0  0  0  0  0  0
   -1.5583   -2.4295    0.0779 H   0  0  0  0  0  0  0  0  0  0  0  0
   -0.7276   -0.5332    2.2943 H   0  0  0  0  0  0  0  0  0  0  0  0
    0.8609   -1.4130   -1.1987 H   0  0  0  0  0  0  0  0  0  0  0  0
  1  2  1  0
  2  3  2  0
  3  4  1  0
  4  5  2  0
  4  6  1  0
  6  7  2  0
  7  8  1  0
  8  9  2  0
  8 10  1  0
 10 11  1  0
 11 12  1  1
 11 13  1  0
 13  2  1  0
 11  6  1  0
  1 14  1  0
  1 15  1  0
 10 16  1  0
 12 17  1  0
 13 18  1  0
M  END
$$$$

     RDKit          3D

 18 19  0  0  0  0  0  0  0  0999 V2000
    2.4628   -0.9753    1.6502 N   0  0  0  0  0  0  0  0  0  0  0  0
    1.2012   -0.8693    0.9546 C   0  0  0  0  0  0  0  0  0  0  0  0
    0.5656   -1.9149    0.5604 N   0  0  0  0  0  0  0  0  0  0  0  0
   -0.6720   -1.8319   -0.1211 C   0  0  0  0  0  0  0  0  0  0  0  0
   -1.3451   -2.7892   -0.5331 O   0  0  0  0  0  0  0  0  0  0  0  0
   -1.1939   -0.4619   -0.3527 C   0  0  0  0  0  0  0  0  0  0  0  0
   -2.3313    0.0687   -0.4922 N   0  0  0  0  0  0  0  0  0  0  0  0
   -2.2194    1.4665   -0.6861 C   0  0  0  0  0  0  0  0  0  0  0  0
   -3.2107    2.2411   -0.8564 O   0  0  0  0  0  0  0  0  0  0  0  0
   -0.8389    1.7946   -0.6510 N   0  0  0  0  0  0  0  0  0  0  0  0
   -0.1371    0.5825   -0.5033 C   0  0  2  0  0  0  0  0  0  0  0  0
    0.6689    0.3172   -1.6188 O   0  0  0  0  0  0  0  0  0  0  0  0
    0.6713    0.4529    0.7016 N   0  0  0  0  0  0  0  0  0  0  0  0
    3.2698   -1.2548    1.0493 H   0  0  0  0  0  0  0  0  0  0  0  0
    2.5430   -0.7877    2.6544 H   0  0  0  0  0  0  0  0  0  0  0  0
   -0.4538    2.7549   -0.7230 H   0  0  0  0  0  0  0  0  0  0  0  0
    0.1398   -0.0036   -2.3883 H   0  0  0  0  0  0  0  0  0  0  0  0
    0.8799    1.2102    1.3555 H   0  0  0  0  0  0  0  0  0  0  0  0
  1  2  1  0
  2  3  2  0
  3  4  1  0
  4  5  2  0
  4  6  1  0
  6  7  2  0
  7  8  1  0
  8  9  2  0
  8 10  1  0
 10 11  1  0
 11 12  1  6
 11 13  1  0
 13  2  1  0
 11  6  1  0
  1 14  1  0
  1 15  1  0
 10 16  1  0
 12 17  1  0
 13 18  1  0
M  END
$$$$

     RDKit          3D

 18 19  0  0  0  0  0  0  0  0999 V2000
    2.9427    0.8398   -0.2415 N   0  0  0  0  0  0  0  0  0  0  0  0
    1.7191    0.1456    0.0396 C   0  0  0  0  0  0  0  0  0  0  0  0
    1.7334   -1.1482    0.2505 N   0  0  0  0  0  0  0  0  0  0  0  0
    0.5072   -1.8008    0.5282 C   0  0  0  0  0  0  0  0  0  0  0  0
    0.4028   -3.0445    0.7465 O   0  0  0  0  0  0  0  0  0  0  0  0
   -0.7129   -0.9761    0.5640 C   0  0  0  0  0  0  0  0  0  0  0  0
   -1.8369   -1.0314    1.1467 N   0  0  0  0  0  0  0  0  0  0  0  0
   -2.6572    0.0996    0.7933 C   0  0  0  0  0  0  0  0  0  0  0  0
   -3.8242    0.3562    1.1844 O   0  0  0  0  0  0  0  0  0  0  0  0
   -1.8998    0.9245   -0.1158 N   0  0  0  0  0  0  0  0  0  0  0  0
   -0.6784    0.2332   -0.3381 C   0  0  2  0  0  0  0  0  0  0  0  0
   -0.5661   -0.2399   -1.6529 O   0  0  0  0  0  0  0  0  0  0  0  0
    0.5282    0.9238    0.0564 N   0  0  0  0  0  0  0  0  0  0  0  0
    3.6239    1.0658    0.5054 H   0  0  0  0  0  0  0  0  0  0  0  0
    3.1620    1.1276   -1.2121 H   0  0  0  0  0  0  0  0  0  0  0  0
   -2.1660    1.8266   -0.5296 H   0  0  0  0  0  0  0  0  0  0  0  0
   -0.7826   -1.2203   -1.6926 H   0  0  0  0  0  0  0  0  0  0  0  0
    0.5048    1.9185    0.3292 H   0  0  0  0  0  0  0  0  0  0  0  0
  1  2  1  0
  2  3  2  0
  3  4  1  0
  4  5  2  0
  4  6  1  0
  6  7  2  0
  7  8  1  0
  8  9  2  0
  8 10  1  0
 10 11  1  0
 11 12  1  6
 11 13  1  0
 13  2  1  0
 11  6  1  0
  1 14  1  0
  1 15  1  0
 10 16  1  0
 12 17  1  0
 13 18  1  0
M  END
$$$$

     RDKit          3D

 18 19  0  0  0  0  0  0  0  0999 V2000
    2.5901   -0.8974    1.3735 N   0  0  0  0  0  0  0  0  0  0  0  0
    1.5154   -0.1476    0.7874 C   0  0  0  0  0  0  0  0  0  0  0  0
    1.3427    1.0972    1.0618 N   0  0  0  0  0  0  0  0  0  0  0  0
    0.3128    1.8952    0.5251 C   0  0  0  0  0  0  0  0  0  0  0  0
    0.1657    3.0850    0.8011 O   0  0  0  0  0  0  0  0  0  0  0  0
   -0.6182    1.2353   -0.4136 C   0  0  0  0  0  0  0  0  0  0  0  0
   -1.3980    1.5564   -1.3462 N   0  0  0  0  0  0  0  0  0  0  0  0
   -2.0615    0.4511   -1.9238 C   0  0  0  0  0  0  0  0  0  0  0  0
   -2.8998    0.4941   -2.8715 O   0  0  0  0  0  0  0  0  0  0  0  0
   -1.5830   -0.6856   -1.2146 N   0  0  0  0  0  0  0  0  0  0  0  0
   -0.7360   -0.2424   -0.1879 C   0  0  2  0  0  0  0  0  0  0  0  0
   -1.4014   -0.4177    1.0401 O   0  0  0  0  0  0  0  0  0  0  0  0
    0.5971   -0.7882   -0.1239 N   0  0  0  0  0  0  0  0  0  0  0  0
    3.5466   -0.5045    1.2532 H   0  0  0  0  0  0  0  0  0  0  0  0
    2.4576   -1.7711    1.8864 H   0  0  0  0  0  0  0  0  0  0  0  0
   -1.8887   -1.6532   -1.5101 H   0  0  0  0  0  0  0  0  0  0  0  0
   -0.8918   -1.1149    1.5320 H   0  0  0  0  0  0  0  0  0  0  0  0
    0.9505   -1.5918   -0.6688 H   0  0  0  0  0  0  0  0  0  0  0  0
  1  2  1  0
  2  3  2  0
  3  4  1  0
  4  5  2  0
  4  6  1  0
  6  7  2  0
  7  8  1  0
  8  9  2  0
  8 10  1  0
 10 11  1  0
 11 12  1  1
 11 13  1  0
 13  2  1  0
 11  6  1  0
  1 14  1  0
  1 15  1  0
 10 16  1  0
 12 17  1  0
 13 18  1  0
M  END
$$$$

     RDKit          3D

 18 19  0  0  0  0  0  0  0  0999 V2000
    3.0731    0.1701    0.0933 N   0  0  0  0  0  0  0  0  0  0  0  0
    1.6991   -0.0327   -0.2353 C   0  0  0  0  0  0  0  0  0  0  0  0
    1.3688   -0.1214   -1.4764 N   0  0  0  0  0  0  0  0  0  0  0  0
    0.0231   -0.3240   -1.8753 C   0  0  0  0  0  0  0  0  0  0  0  0
   -0.2683   -0.4054   -3.0825 O   0  0  0  0  0  0  0  0  0  0  0  0
   -0.9972   -0.4330   -0.8280 C   0  0  0  0  0  0  0  0  0  0  0  0
   -2.1537   -0.9380   -0.7220 N   0  0  0  0  0  0  0  0  0  0  0  0
   -2.6870   -0.7400    0.5837 C   0  0  0  0  0  0  0  0  0  0  0  0
   -3.8284   -1.1366    0.9669 O   0  0  0  0  0  0  0  0  0  0  0  0
   -1.6943   -0.0340    1.3125 N   0  0  0  0  0  0  0  0  0  0  0  0
   -0.6312    0.2692    0.4374 C   0  0  2  0  0  0  0  0  0  0  0  0
   -0.6277    1.6565    0.2478 O   0  0  0  0  0  0  0  0  0  0  0  0
    0.6999   -0.1229    0.8093 N   0  0  0  0  0  0  0  0  0  0  0  0
    3.5227   -0.2346    0.9210 H   0  0  0  0  0  0  0  0  0  0  0  0
    3.6308    0.7633   -0.5546 H   0  0  0  0  0  0  0  0  0  0  0  0
   -1.7699    0.2056    2.3293 H   0  0  0  0  0  0  0  0  0  0  0  0
   -0.3625    1.9116   -0.6523 H   0  0  0  0  0  0  0  0  0  0  0  0
    1.0025   -0.4536    1.7252 H   0  0  0  0  0  0  0  0  0  0  0  0
  1  2  1  0
  2  3  2  0
  3  4  1  0
  4  5  2  0
  4  6  1  0
  6  7  2  0
  7  8  1  0
  8  9  2  0
  8 10  1  0
 10 11  1  0
 11 12  1  6
 11 13  1  0
 13  2  1  0
 11  6  1  0
  1 14  1  0
  1 15  1  0
 10 16  1  0
 12 17  1  0
 13 18  1  0
M  END
$$$$
