
     RDKit          3D

 28 27  0  0  0  0  0  0  0  0999 V2000
   -2.9909    0.4463    1.3178 C   0  0  0  0  0  0  0  0  0  0  0  0
   -2.0114   -0.4824    0.6965 C   0  0  0  0  0  0  0  0  0  0  0  0
   -1.4035    0.0102   -0.5975 C   0  0  1  0  0  0  0  0  0  0  0  0
   -2.5649    0.2119   -1.5693 C   0  0  0  0  0  0  0  0  0  0  0  0
   -2.1015    0.5340   -2.8392 O   0  0  0  0  0  0  0  0  0  0  0  0
   -0.6071    1.1762   -0.4721 N   0  0  0  0  0  0  0  0  0  0  0  0
    0.5587    1.1027    0.3312 C   0  0  0  0  0  0  0  0  0  0  0  0
    1.6383    0.2669   -0.1864 C   0  0  0  0  0  0  0  0  0  0  0  0
    1.4819   -0.3202   -1.2812 O   0  0  0  0  0  0  0  0  0  0  0  0
    2.8731    0.0746    0.4842 N   0  0  0  0  0  0  0  0  0  0  0  0
    3.9181   -0.7394   -0.0209 C   0  0  0  0  0  0  0  0  0  0  0  0
    5.1617   -0.9409    0.6379 N   0  0  0  0  0  0  0  0  0  0  0  0
    3.7128   -1.3160   -1.1323 O   0  0  0  0  0  0  0  0  0  0  0  0
   -4.0278    0.1726    0.9566 H   0  0  0  0  0  0  0  0  0  0  0  0
   -3.0264    0.2173    2.4144 H   0  0  0  0  0  0  0  0  0  0  0  0
   -2.8657    1.5040    1.0870 H   0  0  0  0  0  0  0  0  0  0  0  0
   -1.2045   -0.7057    1.4539 H   0  0  0  0  0  0  0  0  0  0  0  0
   -2.5221   -1.4691    0.5542 H   0  0  0  0  0  0  0  0  0  0  0  0
   -0.7560   -0.8287   -0.9780 H   0  0  0  0  0  0  0  0  0  0  0  0
   -3.1259   -0.7443   -1.6482 H   0  0  0  0  0  0  0  0  0  0  0  0
   -3.2150    0.9997   -1.1559 H   0  0  0  0  0  0  0  0  0  0  0  0
   -1.2648    0.0253   -3.0061 H   0  0  0  0  0  0  0  0  0  0  0  0
   -1.2274    1.9259   -0.0379 H   0  0  0  0  0  0  0  0  0  0  0  0
    0.3410    0.8285    1.4025 H   0  0  0  0  0  0  0  0  0  0  0  0
    0.9410    2.1646    0.4205 H   0  0  0  0  0  0  0  0  0  0  0  0
    3.0527    0.5508    1.4123 H   0  0  0  0  0  0  0  0  0  0  0  0
    5.1697   -1.2762    1.6274 H   0  0  0  0  0  0  0  0  0  0  0  0
    6.0659   -0.7530    0.1286 H   0  0  0  0  0  0  0  0  0  0  0  0
  1  2  1  0
  2  3  1  0
  3  4  1  0
  4  5  1  0
  3  6  1  0
  6  7  1  0
  7  8  1  0
  8  9  2  0
  8 10  1  0
 10 11  1  0
 11 12  1  0
 11 13  2  0
  1 14  1  0
  1 15  1  0
  1 16  1  0
  2 17  1  0
  2 18  1  0
  3 19  1  6
  4 20  1  0
  4 21  1  0
  5 22  1  0
  6 23  1  0
  7 24  1  0
  7 25  1  0
 10 26  1  0
 12 27  1  0
 12 28  1  0
M  END
$$$$

     RDKit          3D

 28 27  0  0  0  0  0  0  0  0999 V2000
   -2.3154   -1.7325   -0.4067 C   0  0  0  0  0  0  0  0  0  0  0  0
   -2.5809   -0.4032   -1.0519 C   0  0  0  0  0  0  0  0  0  0  0  0
   -1.9945    0.7702   -0.3196 C   0  0  1  0  0  0  0  0  0  0  0  0
   -2.5345    0.8796    1.0969 C   0  0  0  0  0  0  0  0  0  0  0  0
   -2.1672    2.1511    1.5448 O   0  0  0  0  0  0  0  0  0  0  0  0
   -0.6095    0.9100   -0.4069 N   0  0  0  0  0  0  0  0  0  0  0  0
    0.2732   -0.0413    0.0833 C   0  0  0  0  0  0  0  0  0  0  0  0
    1.6919    0.4234   -0.1225 C   0  0  0  0  0  0  0  0  0  0  0  0
    1.8981    1.5308   -0.6730 O   0  0  0  0  0  0  0  0  0  0  0  0
    2.7940   -0.3596    0.2906 N   0  0  0  0  0  0  0  0  0  0  0  0
    4.1100    0.1277    0.0774 C   0  0  0  0  0  0  0  0  0  0  0  0
    5.2183   -0.6584    0.4948 N   0  0  0  0  0  0  0  0  0  0  0  0
    4.2805    1.2587   -0.4833 O   0  0  0  0  0  0  0  0  0  0  0  0
   -3.2707   -2.2704   -0.1769 H   0  0  0  0  0  0  0  0  0  0  0  0
   -1.7910   -1.6639    0.5666 H   0  0  0  0  0  0  0  0  0  0  0  0
   -1.6906   -2.3442   -1.0932 H   0  0  0  0  0  0  0  0  0  0  0  0
   -3.6910   -0.3036   -1.1387 H   0  0  0  0  0  0  0  0  0  0  0  0
   -2.2376   -0.4190   -2.1226 H   0  0  0  0  0  0  0  0  0  0  0  0
   -2.4415    1.6780   -0.8379 H   0  0  0  0  0  0  0  0  0  0  0  0
   -3.6443    0.8660    1.1032 H   0  0  0  0  0  0  0  0  0  0  0  0
   -2.1114    0.1065    1.7578 H   0  0  0  0  0  0  0  0  0  0  0  0
   -1.1994    2.3165    1.4154 H   0  0  0  0  0  0  0  0  0  0  0  0
   -0.2403    1.6881   -0.9706 H   0  0  0  0  0  0  0  0  0  0  0  0
    0.1907   -0.9694   -0.5538 H   0  0  0  0  0  0  0  0  0  0  0  0
    0.1955   -0.3664    1.1153 H   0  0  0  0  0  0  0  0  0  0  0  0
    2.6355   -1.2837    0.7484 H   0  0  0  0  0  0  0  0  0  0  0  0
    5.6296   -0.5124    1.4278 H   0  0  0  0  0  0  0  0  0  0  0  0
    5.6024   -1.3787   -0.1540 H   0  0  0  0  0  0  0  0  0  0  0  0
  1  2  1  0
  2  3  1  0
  3  4  1  0
  4  5  1  0
  3  6  1  0
  6  7  1  0
  7  8  1  0
  8  9  2  0
  8 10  1  0
 10 11  1  0
 11 12  1  0
 11 13  2  0
  1 14  1  0
  1 15  1  0
  1 16  1  0
  2 17  1  0
  2 18  1  0
  3 19  1  6
  4 20  1  0
  4 21  1  0
  5 22  1  0
  6 23  1  0
  7 24  1  0
  7 25  1  0
 10 26  1  0
 12 27  1  0
 12 28  1  0
M  END
$$$$

     RDKit          3D

 28 27  0  0  0  0  0  0  0  0999 V2000
   -2.4249    1.9141   -0.2454 C   0  0  0  0  0  0  0  0  0  0  0  0
   -2.1897    0.9197    0.8226 C   0  0  0  0  0  0  0  0  0  0  0  0
   -1.8566   -0.4650    0.3485 C   0  0  1  0  0  0  0  0  0  0  0  0
   -2.9745   -1.0557   -0.4922 C   0  0  0  0  0  0  0  0  0  0  0  0
   -2.6993   -2.3746   -0.7741 O   0  0  0  0  0  0  0  0  0  0  0  0
   -0.5943   -0.5172   -0.3152 N   0  0  0  0  0  0  0  0  0  0  0  0
    0.5112   -0.1750    0.5322 C   0  0  0  0  0  0  0  0  0  0  0  0
    1.7862   -0.2857   -0.2375 C   0  0  0  0  0  0  0  0  0  0  0  0
    1.7780   -0.6362   -1.4446 O   0  0  0  0  0  0  0  0  0  0  0  0
    3.0529   -0.0038    0.3512 N   0  0  0  0  0  0  0  0  0  0  0  0
    4.2657   -0.1092   -0.3871 C   0  0  0  0  0  0  0  0  0  0  0  0
    5.5332    0.1642    0.1876 N   0  0  0  0  0  0  0  0  0  0  0  0
    4.1465   -0.4666   -1.6050 O   0  0  0  0  0  0  0  0  0  0  0  0
   -2.9040    1.5334   -1.1654 H   0  0  0  0  0  0  0  0  0  0  0  0
   -3.0735    2.7304    0.1340 H   0  0  0  0  0  0  0  0  0  0  0  0
   -1.4681    2.4071   -0.5838 H   0  0  0  0  0  0  0  0  0  0  0  0
   -1.3870    1.2720    1.4893 H   0  0  0  0  0  0  0  0  0  0  0  0
   -3.0955    0.8482    1.4809 H   0  0  0  0  0  0  0  0  0  0  0  0
   -1.7886   -1.1072    1.2536 H   0  0  0  0  0  0  0  0  0  0  0  0
   -3.8774   -1.0458    0.1831 H   0  0  0  0  0  0  0  0  0  0  0  0
   -3.1803   -0.5275   -1.4154 H   0  0  0  0  0  0  0  0  0  0  0  0
   -3.2738   -2.6248   -1.5568 H   0  0  0  0  0  0  0  0  0  0  0  0
   -0.4433   -1.2753   -0.9825 H   0  0  0  0  0  0  0  0  0  0  0  0
    0.4487    0.8878    0.8523 H   0  0  0  0  0  0  0  0  0  0  0  0
    0.6254   -0.7875    1.4301 H   0  0  0  0  0  0  0  0  0  0  0  0
    3.0993    0.2847    1.3439 H   0  0  0  0  0  0  0  0  0  0  0  0
    6.0649   -0.6341    0.5861 H   0  0  0  0  0  0  0  0  0  0  0  0
    5.9188    1.1293    0.2097 H   0  0  0  0  0  0  0  0  0  0  0  0
  1  2  1  0
  2  3  1  0
  3  4  1  0
  4  5  1  0
  3  6  1  0
  6  7  1  0
  7  8  1  0
  8  9  2  0
  8 10  1  0
 10 11  1  0
 11 12  1  0
 11 13  2  0
  1 14  1  0
  1 15  1  0
  1 16  1  0
  2 17  1  0
  2 18  1  0
  3 19  1  1
  4 20  1  0
  4 21  1  0
  5 22  1  0
  6 23  1  0
  7 24  1  0
  7 25  1  0
 10 26  1  0
 12 27  1  0
 12 28  1  0
M  END
$$$$

     RDKit          3D

 28 27  0  0  0  0  0  0  0  0999 V2000
   -2.1735   -0.8115    1.5041 C   0  0  0  0  0  0  0  0  0  0  0  0
   -1.6317   -0.9798    0.1287 C   0  0  0  0  0  0  0  0  0  0  0  0
   -1.5915    0.2144   -0.7292 C   0  0  1  0  0  0  0  0  0  0  0  0
   -2.9868    0.8154   -0.9495 C   0  0  0  0  0  0  0  0  0  0  0  0
   -2.8594    1.6295   -2.0992 O   0  0  0  0  0  0  0  0  0  0  0  0
   -0.6554    1.2153   -0.5273 N   0  0  0  0  0  0  0  0  0  0  0  0
    0.7161    1.0631   -0.6655 C   0  0  0  0  0  0  0  0  0  0  0  0
    1.5110    0.3508    0.3372 C   0  0  0  0  0  0  0  0  0  0  0  0
    1.0348   -0.1083    1.3883 O   0  0  0  0  0  0  0  0  0  0  0  0
    2.9115    0.1726    0.0904 N   0  0  0  0  0  0  0  0  0  0  0  0
    3.6969   -0.5382    1.0160 C   0  0  0  0  0  0  0  0  0  0  0  0
    5.0994   -0.7280    0.7637 N   0  0  0  0  0  0  0  0  0  0  0  0
    3.2395   -1.0302    2.0747 O   0  0  0  0  0  0  0  0  0  0  0  0
   -2.9998   -0.0709    1.5682 H   0  0  0  0  0  0  0  0  0  0  0  0
   -1.4352   -0.5246    2.2627 H   0  0  0  0  0  0  0  0  0  0  0  0
   -2.6035   -1.7873    1.8829 H   0  0  0  0  0  0  0  0  0  0  0  0
   -2.3483   -1.7491   -0.3633 H   0  0  0  0  0  0  0  0  0  0  0  0
   -0.6837   -1.5279    0.1296 H   0  0  0  0  0  0  0  0  0  0  0  0
   -1.3651   -0.2011   -1.7962 H   0  0  0  0  0  0  0  0  0  0  0  0
   -3.2316    1.4369   -0.0800 H   0  0  0  0  0  0  0  0  0  0  0  0
   -3.7098    0.0338   -1.2086 H   0  0  0  0  0  0  0  0  0  0  0  0
   -3.6500    1.5964   -2.6630 H   0  0  0  0  0  0  0  0  0  0  0  0
   -0.9922    2.1139   -0.1120 H   0  0  0  0  0  0  0  0  0  0  0  0
    1.1881    2.1011   -0.8306 H   0  0  0  0  0  0  0  0  0  0  0  0
    1.0068    0.5647   -1.6594 H   0  0  0  0  0  0  0  0  0  0  0  0
    3.3032    0.5707   -0.7809 H   0  0  0  0  0  0  0  0  0  0  0  0
    5.3951   -0.9778   -0.1894 H   0  0  0  0  0  0  0  0  0  0  0  0
    5.8148   -0.6195    1.5077 H   0  0  0  0  0  0  0  0  0  0  0  0
  1  2  1  0
  2  3  1  0
  3  4  1  0
  4  5  1  0
  3  6  1  0
  6  7  1  0
  7  8  1  0
  8  9  2  0
  8 10  1  0
 10 11  1  0
 11 12  1  0
 11 13  2  0
  1 14  1  0
  1 15  1  0
  1 16  1  0
  2 17  1  0
  2 18  1  0
  3 19  1  6
  4 20  1  0
  4 21  1  0
  5 22  1  0
  6 23  1  0
  7 24  1  0
  7 25  1  0
 10 26  1  0
 12 27  1  0
 12 28  1  0
M  END
$$$$

     RDKit          3D

 28 27  0  0  0  0  0  0  0  0999 V2000
   -2.5803    1.7184    0.0554 C   0  0  0  0  0  0  0  0  0  0  0  0
   -2.0545    0.7911    1.0976 C   0  0  0  0  0  0  0  0  0  0  0  0
   -1.6856   -0.5724    0.6119 C   0  0  1  0  0  0  0  0  0  0  0  0
   -2.8279   -1.3257   -0.0046 C   0  0  0  0  0  0  0  0  0  0  0  0
   -3.2270   -0.8252   -1.2404 O   0  0  0  0  0  0  0  0  0  0  0  0
   -0.5550   -0.6341   -0.2661 N   0  0  0  0  0  0  0  0  0  0  0  0
    0.6439   -0.1879    0.3809 C   0  0  0  0  0  0  0  0  0  0  0  0
    1.7751   -0.3441   -0.5559 C   0  0  0  0  0  0  0  0  0  0  0  0
    1.6189   -0.7944   -1.6951 O   0  0  0  0  0  0  0  0  0  0  0  0
    3.0862    0.0457   -0.1054 N   0  0  0  0  0  0  0  0  0  0  0  0
    4.2033   -0.1045   -0.9633 C   0  0  0  0  0  0  0  0  0  0  0  0
    5.5311    0.2393   -0.6056 N   0  0  0  0  0  0  0  0  0  0  0  0
    3.9677   -0.5799   -2.1184 O   0  0  0  0  0  0  0  0  0  0  0  0
   -2.3607    1.3620   -0.9793 H   0  0  0  0  0  0  0  0  0  0  0  0
   -2.1252    2.7222    0.2142 H   0  0  0  0  0  0  0  0  0  0  0  0
   -3.6864    1.8067    0.1521 H   0  0  0  0  0  0  0  0  0  0  0  0
   -2.8404    0.7221    1.9115 H   0  0  0  0  0  0  0  0  0  0  0  0
   -1.1911    1.2582    1.6247 H   0  0  0  0  0  0  0  0  0  0  0  0
   -1.4233   -1.1628    1.5458 H   0  0  0  0  0  0  0  0  0  0  0  0
   -3.6760   -1.4697    0.6933 H   0  0  0  0  0  0  0  0  0  0  0  0
   -2.4445   -2.3695   -0.2092 H   0  0  0  0  0  0  0  0  0  0  0  0
   -4.1019   -1.2521   -1.4595 H   0  0  0  0  0  0  0  0  0  0  0  0
   -0.7067   -0.2528   -1.2009 H   0  0  0  0  0  0  0  0  0  0  0  0
    0.5773    0.8774    0.7038 H   0  0  0  0  0  0  0  0  0  0  0  0
    0.8571   -0.8054    1.2828 H   0  0  0  0  0  0  0  0  0  0  0  0
    3.2606    0.4369    0.8475 H   0  0  0  0  0  0  0  0  0  0  0  0
    6.1168   -0.5009   -0.1777 H   0  0  0  0  0  0  0  0  0  0  0  0
    5.8488    1.2014   -0.7867 H   0  0  0  0  0  0  0  0  0  0  0  0
  1  2  1  0
  2  3  1  0
  3  4  1  0
  4  5  1  0
  3  6  1  0
  6  7  1  0
  7  8  1  0
  8  9  2  0
  8 10  1  0
 10 11  1  0
 11 12  1  0
 11 13  2  0
  1 14  1  0
  1 15  1  0
  1 16  1  0
  2 17  1  0
  2 18  1  0
  3 19  1  1
  4 20  1  0
  4 21  1  0
  5 22  1  0
  6 23  1  0
  7 24  1  0
  7 25  1  0
 10 26  1  0
 12 27  1  0
 12 28  1  0
M  END
$$$$

     RDKit          3D

 28 27  0  0  0  0  0  0  0  0999 V2000
   -3.4982    0.2814   -1.0298 C   0  0  0  0  0  0  0  0  0  0  0  0
   -2.0145    0.0597   -1.0702 C   0  0  0  0  0  0  0  0  0  0  0  0
   -1.4778    0.3430    0.3444 C   0  0  1  0  0  0  0  0  0  0  0  0
   -2.1769   -0.6413    1.2227 C   0  0  0  0  0  0  0  0  0  0  0  0
   -1.8261   -0.6389    2.5464 O   0  0  0  0  0  0  0  0  0  0  0  0
   -0.0701    0.2541    0.2591 N   0  0  0  0  0  0  0  0  0  0  0  0
    0.4962   -1.0015   -0.0854 C   0  0  0  0  0  0  0  0  0  0  0  0
    1.9815   -0.9450   -0.2046 C   0  0  0  0  0  0  0  0  0  0  0  0
    2.6407   -1.9736   -0.5010 O   0  0  0  0  0  0  0  0  0  0  0  0
    2.7299    0.2464    0.0020 N   0  0  0  0  0  0  0  0  0  0  0  0
    4.1492    0.2844   -0.1390 C   0  0  0  0  0  0  0  0  0  0  0  0
    4.8861    1.4839    0.0559 N   0  0  0  0  0  0  0  0  0  0  0  0
    4.7884   -0.7496   -0.4423 O   0  0  0  0  0  0  0  0  0  0  0  0
   -3.7505    1.0009   -0.2430 H   0  0  0  0  0  0  0  0  0  0  0  0
   -3.8787    0.6267   -2.0250 H   0  0  0  0  0  0  0  0  0  0  0  0
   -4.0484   -0.6608   -0.8222 H   0  0  0  0  0  0  0  0  0  0  0  0
   -1.8801   -1.0514   -1.2218 H   0  0  0  0  0  0  0  0  0  0  0  0
   -1.4689    0.6469   -1.8213 H   0  0  0  0  0  0  0  0  0  0  0  0
   -1.8215    1.3658    0.5778 H   0  0  0  0  0  0  0  0  0  0  0  0
   -2.0758   -1.6694    0.8168 H   0  0  0  0  0  0  0  0  0  0  0  0
   -3.2749   -0.3629    1.1917 H   0  0  0  0  0  0  0  0  0  0  0  0
   -1.5745    0.2477    2.9168 H   0  0  0  0  0  0  0  0  0  0  0  0
    0.2578    0.9595   -0.4505 H   0  0  0  0  0  0  0  0  0  0  0  0
    0.3034   -1.7525    0.7199 H   0  0  0  0  0  0  0  0  0  0  0  0
    0.0995   -1.3288   -1.0605 H   0  0  0  0  0  0  0  0  0  0  0  0
    2.2297    1.1263    0.2574 H   0  0  0  0  0  0  0  0  0  0  0  0
    4.7022    2.2608   -0.6236 H   0  0  0  0  0  0  0  0  0  0  0  0
    5.5725    1.5883    0.8330 H   0  0  0  0  0  0  0  0  0  0  0  0
  1  2  1  0
  2  3  1  0
  3  4  1  0
  4  5  1  0
  3  6  1  0
  6  7  1  0
  7  8  1  0
  8  9  2  0
  8 10  1  0
 10 11  1  0
 11 12  1  0
 11 13  2  0
  1 14  1  0
  1 15  1  0
  1 16  1  0
  2 17  1  0
  2 18  1  0
  3 19  1  1
  4 20  1  0
  4 21  1  0
  5 22  1  0
  6 23  1  0
  7 24  1  0
  7 25  1  0
 10 26  1  0
 12 27  1  0
 12 28  1  0
M  END
$$$$

     RDKit          3D

 28 27  0  0  0  0  0  0  0  0999 V2000
   -2.0461    1.9939    0.2905 C   0  0  0  0  0  0  0  0  0  0  0  0
   -2.5392    0.7312   -0.3281 C   0  0  0  0  0  0  0  0  0  0  0  0
   -1.8739   -0.5259    0.0960 C   0  0  1  0  0  0  0  0  0  0  0  0
   -2.5813   -1.6619   -0.6812 C   0  0  0  0  0  0  0  0  0  0  0  0
   -3.9464   -1.6252   -0.5151 O   0  0  0  0  0  0  0  0  0  0  0  0
   -0.5055   -0.6886   -0.1603 N   0  0  0  0  0  0  0  0  0  0  0  0
    0.4522    0.1539    0.4293 C   0  0  0  0  0  0  0  0  0  0  0  0
    1.8111   -0.2906   -0.0556 C   0  0  0  0  0  0  0  0  0  0  0  0
    1.8790   -1.2621   -0.8467 O   0  0  0  0  0  0  0  0  0  0  0  0
    3.0153    0.3452    0.3456 N   0  0  0  0  0  0  0  0  0  0  0  0
    4.2490   -0.1545   -0.1821 C   0  0  0  0  0  0  0  0  0  0  0  0
    5.4500    0.4713    0.2092 N   0  0  0  0  0  0  0  0  0  0  0  0
    4.2486   -1.1384   -0.9826 O   0  0  0  0  0  0  0  0  0  0  0  0
   -1.4306    2.6335   -0.3764 H   0  0  0  0  0  0  0  0  0  0  0  0
   -2.9389    2.6564    0.5218 H   0  0  0  0  0  0  0  0  0  0  0  0
   -1.5750    1.8474    1.2917 H   0  0  0  0  0  0  0  0  0  0  0  0
   -2.5684    0.8663   -1.4346 H   0  0  0  0  0  0  0  0  0  0  0  0
   -3.6313    0.6212   -0.0472 H   0  0  0  0  0  0  0  0  0  0  0  0
   -2.1100   -0.7206    1.1612 H   0  0  0  0  0  0  0  0  0  0  0  0
   -2.2091   -2.6562   -0.3593 H   0  0  0  0  0  0  0  0  0  0  0  0
   -2.2892   -1.5867   -1.7697 H   0  0  0  0  0  0  0  0  0  0  0  0
   -4.2479   -2.1411    0.2557 H   0  0  0  0  0  0  0  0  0  0  0  0
   -0.2364   -1.6819   -0.2140 H   0  0  0  0  0  0  0  0  0  0  0  0
    0.4957    0.0711    1.5561 H   0  0  0  0  0  0  0  0  0  0  0  0
    0.3894    1.2022    0.1067 H   0  0  0  0  0  0  0  0  0  0  0  0
    2.9585    1.1351    0.9933 H   0  0  0  0  0  0  0  0  0  0  0  0
    5.8339    0.3267    1.1627 H   0  0  0  0  0  0  0  0  0  0  0  0
    5.9464    1.0783   -0.4669 H   0  0  0  0  0  0  0  0  0  0  0  0
  1  2  1  0
  2  3  1  0
  3  4  1  0
  4  5  1  0
  3  6  1  0
  6  7  1  0
  7  8  1  0
  8  9  2  0
  8 10  1  0
 10 11  1  0
 11 12  1  0
 11 13  2  0
  1 14  1  0
  1 15  1  0
  1 16  1  0
  2 17  1  0
  2 18  1  0
  3 19  1  1
  4 20  1  0
  4 21  1  0
  5 22  1  0
  6 23  1  0
  7 24  1  0
  7 25  1  0
 10 26  1  0
 12 27  1  0
 12 28  1  0
M  END
$$$$

     RDKit          3D

 28 27  0  0  0  0  0  0  0  0999 V2000
   -2.3460    1.5130    0.7132 C   0  0  0  0  0  0  0  0  0  0  0  0
   -2.1269    0.1902    1.3810 C   0  0  0  0  0  0  0  0  0  0  0  0
   -1.4794   -0.7265    0.3336 C   0  0  1  0  0  0  0  0  0  0  0  0
   -2.4171   -0.8262   -0.8181 C   0  0  0  0  0  0  0  0  0  0  0  0
   -3.6598   -1.3544   -0.3487 O   0  0  0  0  0  0  0  0  0  0  0  0
   -0.1739   -0.2377    0.0717 N   0  0  0  0  0  0  0  0  0  0  0  0
    0.4425   -0.7458   -1.1216 C   0  0  0  0  0  0  0  0  0  0  0  0
    1.8925   -0.4331   -1.2174 C   0  0  0  0  0  0  0  0  0  0  0  0
    2.5269   -0.8276   -2.2246 O   0  0  0  0  0  0  0  0  0  0  0  0
    2.5908    0.2871   -0.2183 N   0  0  0  0  0  0  0  0  0  0  0  0
    4.0109    0.4748   -0.3388 C   0  0  0  0  0  0  0  0  0  0  0  0
    4.7461    1.1637    0.6746 N   0  0  0  0  0  0  0  0  0  0  0  0
    4.5869    0.0268   -1.3433 O   0  0  0  0  0  0  0  0  0  0  0  0
   -1.8149    1.6525   -0.2284 H   0  0  0  0  0  0  0  0  0  0  0  0
   -3.4299    1.6568    0.4988 H   0  0  0  0  0  0  0  0  0  0  0  0
   -2.0410    2.3197    1.4243 H   0  0  0  0  0  0  0  0  0  0  0  0
   -1.4034    0.2614    2.2007 H   0  0  0  0  0  0  0  0  0  0  0  0
   -3.0705   -0.3006    1.7157 H   0  0  0  0  0  0  0  0  0  0  0  0
   -1.4018   -1.7452    0.8501 H   0  0  0  0  0  0  0  0  0  0  0  0
   -2.1083   -1.5019   -1.6361 H   0  0  0  0  0  0  0  0  0  0  0  0
   -2.6759    0.1582   -1.2848 H   0  0  0  0  0  0  0  0  0  0  0  0
   -3.4388   -1.8929    0.4734 H   0  0  0  0  0  0  0  0  0  0  0  0
    0.4000   -0.4077    0.9257 H   0  0  0  0  0  0  0  0  0  0  0  0
    0.3327   -1.8465   -1.1090 H   0  0  0  0  0  0  0  0  0  0  0  0
   -0.0259   -0.2940   -2.0303 H   0  0  0  0  0  0  0  0  0  0  0  0
    2.0925    0.6643    0.6242 H   0  0  0  0  0  0  0  0  0  0  0  0
    5.5027    0.6365    1.1466 H   0  0  0  0  0  0  0  0  0  0  0  0
    4.4889    2.1353    0.8857 H   0  0  0  0  0  0  0  0  0  0  0  0
  1  2  1  0
  2  3  1  0
  3  4  1  0
  4  5  1  0
  3  6  1  0
  6  7  1  0
  7  8  1  0
  8  9  2  0
  8 10  1  0
 10 11  1  0
 11 12  1  0
 11 13  2  0
  1 14  1  0
  1 15  1  0
  1 16  1  0
  2 17  1  0
  2 18  1  0
  3 19  1  1
  4 20  1  0
  4 21  1  0
  5 22  1  0
  6 23  1  0
  7 24  1  0
  7 25  1  0
 10 26  1  0
 12 27  1  0
 12 28  1  0
M  END
$$$$
