
     RDKit          3D

 24 23  0  0  0  0  0  0  0  0999 V2000
    3.9879    0.4884    0.5746 C   0  0  0  0  0  0  0  0  0  0  0  0
    2.5259    0.4437    0.4947 N   0  0  0  0  0  0  0  0  0  0  0  0
    1.9413   -0.3010   -0.5529 C   0  0  0  0  0  0  0  0  0  0  0  0
    2.7019   -0.8869   -1.3643 O   0  0  0  0  0  0  0  0  0  0  0  0
    0.5012   -0.4250   -0.7417 C   0  0  0  0  0  0  0  0  0  0  0  0
   -0.3225    0.2544    0.1981 N   0  0  0  0  0  0  0  0  0  0  0  0
   -1.6992   -0.0135   -0.1360 C   0  0  1  0  0  0  0  0  0  0  0  0
   -2.0157   -1.5048   -0.0179 C   0  0  0  0  0  0  0  0  0  0  0  0
   -2.6819    0.7466    0.7089 C   0  0  0  0  0  0  0  0  0  0  0  0
   -2.4640    2.0940    0.5359 O   0  0  0  0  0  0  0  0  0  0  0  0
    4.3768    0.5159   -0.4719 H   0  0  0  0  0  0  0  0  0  0  0  0
    4.3568    1.3422    1.1555 H   0  0  0  0  0  0  0  0  0  0  0  0
    4.2758   -0.4984    1.0141 H   0  0  0  0  0  0  0  0  0  0  0  0
    1.9238    0.9549    1.2009 H   0  0  0  0  0  0  0  0  0  0  0  0
    0.2309   -0.0363   -1.7674 H   0  0  0  0  0  0  0  0  0  0  0  0
    0.2042   -1.4985   -0.7659 H   0  0  0  0  0  0  0  0  0  0  0  0
   -0.0763    0.1775    1.1880 H   0  0  0  0  0  0  0  0  0  0  0  0
   -1.8477    0.2942   -1.1954 H   0  0  0  0  0  0  0  0  0  0  0  0
   -1.2345   -2.0323    0.5802 H   0  0  0  0  0  0  0  0  0  0  0  0
   -2.9714   -1.6525    0.5317 H   0  0  0  0  0  0  0  0  0  0  0  0
   -2.1489   -1.9743   -1.0200 H   0  0  0  0  0  0  0  0  0  0  0  0
   -2.6027    0.4216    1.7681 H   0  0  0  0  0  0  0  0  0  0  0  0
   -3.6974    0.5052    0.2945 H   0  0  0  0  0  0  0  0  0  0  0  0
   -3.2643    2.5851    0.8996 H   0  0  0  0  0  0  0  0  0  0  0  0
  1  2  1  0
  2  3  1  0
  3  4  2  0
  3  5  1  0
  5  6  1  0
  6  7  1  0
  7  8  1  0
  7  9  1  0
  9 10  1  0
  1 11  1  0
  1 12  1  0
  1 13  1  0
  2 14  1  0
  5 15  1  0
  5 16  1  0
  6 17  1  0
  7 18  1  6
  8 19  1  0
  8 20  1  0
  8 21  1  0
  9 22  1  0
  9 23  1  0
 10 24  1  0
M  END
$$$$

     RDKit          3D

 24 23  0  0  0  0  0  0  0  0999 V2000
    4.0442   -0.3044   -0.1393 C   0  0  0  0  0  0  0  0  0  0  0  0
    2.6070   -0.0418    0.0173 N   0  0  0  0  0  0  0  0  0  0  0  0
    1.6417   -0.6334   -0.8193 C   0  0  0  0  0  0  0  0  0  0  0  0
    2.0807   -1.4200   -1.7476 O   0  0  0  0  0  0  0  0  0  0  0  0
    0.1897   -0.4140   -0.7075 C   0  0  0  0  0  0  0  0  0  0  0  0
   -0.0834    0.4842    0.3699 N   0  0  0  0  0  0  0  0  0  0  0  0
   -1.4827    0.7152    0.6372 C   0  0  1  0  0  0  0  0  0  0  0  0
   -2.1839    1.3500   -0.5187 C   0  0  0  0  0  0  0  0  0  0  0  0
   -2.2119   -0.5662    0.9993 C   0  0  0  0  0  0  0  0  0  0  0  0
   -3.5414   -0.2485    1.2596 O   0  0  0  0  0  0  0  0  0  0  0  0
    4.3951   -0.8339    0.7830 H   0  0  0  0  0  0  0  0  0  0  0  0
    4.2500   -0.8931   -1.0489 H   0  0  0  0  0  0  0  0  0  0  0  0
    4.5844    0.6370   -0.1797 H   0  0  0  0  0  0  0  0  0  0  0  0
    2.3026    0.6162    0.7799 H   0  0  0  0  0  0  0  0  0  0  0  0
   -0.1201    0.0228   -1.7011 H   0  0  0  0  0  0  0  0  0  0  0  0
   -0.2930   -1.4129   -0.6131 H   0  0  0  0  0  0  0  0  0  0  0  0
    0.3924    0.2067    1.2587 H   0  0  0  0  0  0  0  0  0  0  0  0
   -1.5125    1.3631    1.5558 H   0  0  0  0  0  0  0  0  0  0  0  0
   -1.5420    1.4213   -1.4087 H   0  0  0  0  0  0  0  0  0  0  0  0
   -3.0837    0.7544   -0.8331 H   0  0  0  0  0  0  0  0  0  0  0  0
   -2.5494    2.3550   -0.2445 H   0  0  0  0  0  0  0  0  0  0  0  0
   -1.7557   -1.1083    1.8292 H   0  0  0  0  0  0  0  0  0  0  0  0
   -2.1884   -1.1789    0.0419 H   0  0  0  0  0  0  0  0  0  0  0  0
   -3.9397   -0.8705    1.9392 H   0  0  0  0  0  0  0  0  0  0  0  0
  1  2  1  0
  2  3  1  0
  3  4  2  0
  3  5  1  0
  5  6  1  0
  6  7  1  0
  7  8  1  0
  7  9  1  0
  9 10  1  0
  1 11  1  0
  1 12  1  0
  1 13  1  0
  2 14  1  0
  5 15  1  0
  5 16  1  0
  6 17  1  0
  7 18  1  1
  8 19  1  0
  8 20  1  0
  8 21  1  0
  9 22  1  0
  9 23  1  0
 10 24  1  0
M  END
$$$$

     RDKit          3D

 24 23  0  0  0  0  0  0  0  0999 V2000
    3.7809   -0.3110    0.3697 C   0  0  0  0  0  0  0  0  0  0  0  0
    2.6181    0.4948    0.1685 N   0  0  0  0  0  0  0  0  0  0  0  0
    1.3790   -0.0387   -0.3470 C   0  0  0  0  0  0  0  0  0  0  0  0
    1.3549   -1.2451   -0.6129 O   0  0  0  0  0  0  0  0  0  0  0  0
    0.2673    0.9244   -0.4950 C   0  0  0  0  0  0  0  0  0  0  0  0
   -0.9671    0.4795   -0.9386 N   0  0  0  0  0  0  0  0  0  0  0  0
   -1.8394   -0.2991   -0.1899 C   0  0  1  0  0  0  0  0  0  0  0  0
   -1.4140   -1.6772    0.2336 C   0  0  0  0  0  0  0  0  0  0  0  0
   -2.4237    0.4023    1.0292 C   0  0  0  0  0  0  0  0  0  0  0  0
   -3.1172    1.5240    0.5829 O   0  0  0  0  0  0  0  0  0  0  0  0
    4.6881    0.2654    0.0369 H   0  0  0  0  0  0  0  0  0  0  0  0
    3.9015   -0.4788    1.4793 H   0  0  0  0  0  0  0  0  0  0  0  0
    3.7346   -1.2904   -0.1190 H   0  0  0  0  0  0  0  0  0  0  0  0
    2.6637    1.5032    0.4003 H   0  0  0  0  0  0  0  0  0  0  0  0
    0.6513    1.6636   -1.2733 H   0  0  0  0  0  0  0  0  0  0  0  0
    0.2653    1.5549    0.4297 H   0  0  0  0  0  0  0  0  0  0  0  0
   -1.2438    0.7275   -1.9161 H   0  0  0  0  0  0  0  0  0  0  0  0
   -2.7563   -0.4732   -0.8421 H   0  0  0  0  0  0  0  0  0  0  0  0
   -1.1243   -2.2983   -0.6158 H   0  0  0  0  0  0  0  0  0  0  0  0
   -2.3442   -2.1300    0.7285 H   0  0  0  0  0  0  0  0  0  0  0  0
   -0.6795   -1.6403    1.0586 H   0  0  0  0  0  0  0  0  0  0  0  0
   -1.6916    0.6508    1.7930 H   0  0  0  0  0  0  0  0  0  0  0  0
   -3.1731   -0.2950    1.4560 H   0  0  0  0  0  0  0  0  0  0  0  0
   -2.5306    1.9866   -0.0575 H   0  0  0  0  0  0  0  0  0  0  0  0
  1  2  1  0
  2  3  1  0
  3  4  2  0
  3  5  1  0
  5  6  1  0
  6  7  1  0
  7  8  1  0
  7  9  1  0
  9 10  1  0
  1 11  1  0
  1 12  1  0
  1 13  1  0
  2 14  1  0
  5 15  1  0
  5 16  1  0
  6 17  1  0
  7 18  1  6
  8 19  1  0
  8 20  1  0
  8 21  1  0
  9 22  1  0
  9 23  1  0
 10 24  1  0
M  END
$$$$

     RDKit          3D

 24 23  0  0  0  0  0  0  0  0999 V2000
    4.2380   -0.4108    0.1950 C   0  0  0  0  0  0  0  0  0  0  0  0
    2.9209   -0.7235   -0.3066 N   0  0  0  0  0  0  0  0  0  0  0  0
    1.8091    0.1047    0.0635 C   0  0  0  0  0  0  0  0  0  0  0  0
    1.9359    1.0882    0.8047 O   0  0  0  0  0  0  0  0  0  0  0  0
    0.4709   -0.2798   -0.4943 C   0  0  0  0  0  0  0  0  0  0  0  0
   -0.5302    0.6334   -0.0270 N   0  0  0  0  0  0  0  0  0  0  0  0
   -1.8475    0.3553   -0.4960 C   0  0  1  0  0  0  0  0  0  0  0  0
   -2.2700   -0.9963    0.0354 C   0  0  0  0  0  0  0  0  0  0  0  0
   -2.8421    1.4251   -0.1437 C   0  0  0  0  0  0  0  0  0  0  0  0
   -2.9204    1.5721    1.2381 O   0  0  0  0  0  0  0  0  0  0  0  0
    4.9789   -0.3498   -0.6425 H   0  0  0  0  0  0  0  0  0  0  0  0
    4.6030   -1.2007    0.8983 H   0  0  0  0  0  0  0  0  0  0  0  0
    4.2325    0.6005    0.6708 H   0  0  0  0  0  0  0  0  0  0  0  0
    2.7577   -1.5234   -0.9236 H   0  0  0  0  0  0  0  0  0  0  0  0
    0.5577   -0.3057   -1.5936 H   0  0  0  0  0  0  0  0  0  0  0  0
    0.2493   -1.2893   -0.1214 H   0  0  0  0  0  0  0  0  0  0  0  0
   -0.4687    0.8421    0.9889 H   0  0  0  0  0  0  0  0  0  0  0  0
   -1.7709    0.2693   -1.6146 H   0  0  0  0  0  0  0  0  0  0  0  0
   -1.5619   -1.4008    0.7849 H   0  0  0  0  0  0  0  0  0  0  0  0
   -3.2941   -0.9766    0.4726 H   0  0  0  0  0  0  0  0  0  0  0  0
   -2.3267   -1.7521   -0.7874 H   0  0  0  0  0  0  0  0  0  0  0  0
   -3.8699    1.1285   -0.5036 H   0  0  0  0  0  0  0  0  0  0  0  0
   -2.6214    2.3724   -0.6712 H   0  0  0  0  0  0  0  0  0  0  0  0
   -2.4301    0.8172    1.6435 H   0  0  0  0  0  0  0  0  0  0  0  0
  1  2  1  0
  2  3  1  0
  3  4  2  0
  3  5  1  0
  5  6  1  0
  6  7  1  0
  7  8  1  0
  7  9  1  0
  9 10  1  0
  1 11  1  0
  1 12  1  0
  1 13  1  0
  2 14  1  0
  5 15  1  0
  5 16  1  0
  6 17  1  0
  7 18  1  6
  8 19  1  0
  8 20  1  0
  8 21  1  0
  9 22  1  0
  9 23  1  0
 10 24  1  0
M  END
$$$$

     RDKit          3D

 24 23  0  0  0  0  0  0  0  0999 V2000
    3.8651    0.6764    0.7042 C   0  0  0  0  0  0  0  0  0  0  0  0
    2.8887    0.2649   -0.2833 N   0  0  0  0  0  0  0  0  0  0  0  0
    1.5866   -0.1887    0.0457 C   0  0  0  0  0  0  0  0  0  0  0  0
    1.2958   -0.2247    1.2783 O   0  0  0  0  0  0  0  0  0  0  0  0
    0.6205   -0.5979   -1.0054 C   0  0  0  0  0  0  0  0  0  0  0  0
   -0.6243   -1.0240   -0.5191 N   0  0  0  0  0  0  0  0  0  0  0  0
   -1.4918   -0.1173    0.0857 C   0  0  1  0  0  0  0  0  0  0  0  0
   -2.0174    1.0109   -0.7050 C   0  0  0  0  0  0  0  0  0  0  0  0
   -2.6917   -0.9274    0.6097 C   0  0  0  0  0  0  0  0  0  0  0  0
   -3.6243   -0.1346    1.2351 O   0  0  0  0  0  0  0  0  0  0  0  0
    4.5581   -0.1335    0.9993 H   0  0  0  0  0  0  0  0  0  0  0  0
    4.4812    1.5262    0.3006 H   0  0  0  0  0  0  0  0  0  0  0  0
    3.3433    1.0578    1.5851 H   0  0  0  0  0  0  0  0  0  0  0  0
    3.1228    0.2848   -1.3162 H   0  0  0  0  0  0  0  0  0  0  0  0
    0.5914    0.1747   -1.7993 H   0  0  0  0  0  0  0  0  0  0  0  0
    1.1053   -1.4871   -1.5183 H   0  0  0  0  0  0  0  0  0  0  0  0
   -0.6952   -2.0164   -0.2343 H   0  0  0  0  0  0  0  0  0  0  0  0
   -1.0135    0.2962    1.0111 H   0  0  0  0  0  0  0  0  0  0  0  0
   -1.4362    1.9510   -0.4537 H   0  0  0  0  0  0  0  0  0  0  0  0
   -2.0676    0.8643   -1.7932 H   0  0  0  0  0  0  0  0  0  0  0  0
   -3.0527    1.2451   -0.3710 H   0  0  0  0  0  0  0  0  0  0  0  0
   -2.3560   -1.7754    1.2262 H   0  0  0  0  0  0  0  0  0  0  0  0
   -3.2290   -1.3951   -0.2673 H   0  0  0  0  0  0  0  0  0  0  0  0
   -3.1590    0.6699    1.6082 H   0  0  0  0  0  0  0  0  0  0  0  0
  1  2  1  0
  2  3  1  0
  3  4  2  0
  3  5  1  0
  5  6  1  0
  6  7  1  0
  7  8  1  0
  7  9  1  0
  9 10  1  0
  1 11  1  0
  1 12  1  0
  1 13  1  0
  2 14  1  0
  5 15  1  0
  5 16  1  0
  6 17  1  0
  7 18  1  1
  8 19  1  0
  8 20  1  0
  8 21  1  0
  9 22  1  0
  9 23  1  0
 10 24  1  0
M  END
$$$$

     RDKit          3D

 24 23  0  0  0  0  0  0  0  0999 V2000
    3.5859    0.7432    0.2052 C   0  0  0  0  0  0  0  0  0  0  0  0
    2.6132   -0.1405   -0.4089 N   0  0  0  0  0  0  0  0  0  0  0  0
    1.2349    0.2799   -0.4936 C   0  0  0  0  0  0  0  0  0  0  0  0
    0.9170    1.3821   -0.0413 O   0  0  0  0  0  0  0  0  0  0  0  0
    0.3018   -0.6432   -1.1179 C   0  0  0  0  0  0  0  0  0  0  0  0
   -1.0294   -0.2621   -1.1549 N   0  0  0  0  0  0  0  0  0  0  0  0
   -1.8998   -0.2637   -0.0764 C   0  0  1  0  0  0  0  0  0  0  0  0
   -2.0998   -1.6568    0.5398 C   0  0  0  0  0  0  0  0  0  0  0  0
   -1.7832    0.7571    1.0073 C   0  0  0  0  0  0  0  0  0  0  0  0
   -1.9199    2.0651    0.5858 O   0  0  0  0  0  0  0  0  0  0  0  0
    4.1460    0.1440    0.9777 H   0  0  0  0  0  0  0  0  0  0  0  0
    4.2985    1.1136   -0.5429 H   0  0  0  0  0  0  0  0  0  0  0  0
    3.0705    1.6137    0.6429 H   0  0  0  0  0  0  0  0  0  0  0  0
    2.9271   -1.0734   -0.7809 H   0  0  0  0  0  0  0  0  0  0  0  0
    0.6463   -0.8778   -2.1958 H   0  0  0  0  0  0  0  0  0  0  0  0
    0.4643   -1.6331   -0.5537 H   0  0  0  0  0  0  0  0  0  0  0  0
   -1.2007    0.5697   -1.7599 H   0  0  0  0  0  0  0  0  0  0  0  0
   -2.9489   -0.0374   -0.5469 H   0  0  0  0  0  0  0  0  0  0  0  0
   -1.7889   -2.4226   -0.1742 H   0  0  0  0  0  0  0  0  0  0  0  0
   -1.5015   -1.7030    1.4753 H   0  0  0  0  0  0  0  0  0  0  0  0
   -3.1551   -1.7707    0.8413 H   0  0  0  0  0  0  0  0  0  0  0  0
   -0.8928    0.5604    1.6239 H   0  0  0  0  0  0  0  0  0  0  0  0
   -2.6785    0.6050    1.7264 H   0  0  0  0  0  0  0  0  0  0  0  0
   -1.3069    2.6505    1.1031 H   0  0  0  0  0  0  0  0  0  0  0  0
  1  2  1  0
  2  3  1  0
  3  4  2  0
  3  5  1  0
  5  6  1  0
  6  7  1  0
  7  8  1  0
  7  9  1  0
  9 10  1  0
  1 11  1  0
  1 12  1  0
  1 13  1  0
  2 14  1  0
  5 15  1  0
  5 16  1  0
  6 17  1  0
  7 18  1  6
  8 19  1  0
  8 20  1  0
  8 21  1  0
  9 22  1  0
  9 23  1  0
 10 24  1  0
M  END
$$$$

     RDKit          3D

 24 23  0  0  0  0  0  0  0  0999 V2000
    4.0058   -0.5357   -0.2089 C   0  0  0  0  0  0  0  0  0  0  0  0
    2.5589   -0.3975   -0.2853 N   0  0  0  0  0  0  0  0  0  0  0  0
    1.7889    0.0060    0.8274 C   0  0  0  0  0  0  0  0  0  0  0  0
    2.4706    0.2334    1.8930 O   0  0  0  0  0  0  0  0  0  0  0  0
    0.3167    0.1693    0.8275 C   0  0  0  0  0  0  0  0  0  0  0  0
   -0.2043   -0.1234   -0.4453 N   0  0  0  0  0  0  0  0  0  0  0  0
   -1.6249   -0.0583   -0.5857 C   0  0  1  0  0  0  0  0  0  0  0  0
   -2.3707   -1.0347    0.2619 C   0  0  0  0  0  0  0  0  0  0  0  0
   -2.0700    1.3344   -0.1981 C   0  0  0  0  0  0  0  0  0  0  0  0
   -3.4634    1.4194   -0.3394 O   0  0  0  0  0  0  0  0  0  0  0  0
    4.3396   -0.1460    0.7732 H   0  0  0  0  0  0  0  0  0  0  0  0
    4.4640    0.0918   -1.0159 H   0  0  0  0  0  0  0  0  0  0  0  0
    4.3071   -1.5847   -0.3522 H   0  0  0  0  0  0  0  0  0  0  0  0
    2.1084   -0.6087   -1.1897 H   0  0  0  0  0  0  0  0  0  0  0  0
    0.1204    1.2307    1.0852 H   0  0  0  0  0  0  0  0  0  0  0  0
   -0.0980   -0.4602    1.6382 H   0  0  0  0  0  0  0  0  0  0  0  0
    0.3165    0.2708   -1.2519 H   0  0  0  0  0  0  0  0  0  0  0  0
   -1.9047   -0.2225   -1.6493 H   0  0  0  0  0  0  0  0  0  0  0  0
   -1.9169   -2.0501    0.2129 H   0  0  0  0  0  0  0  0  0  0  0  0
   -3.3926   -1.1630   -0.1959 H   0  0  0  0  0  0  0  0  0  0  0  0
   -2.5261   -0.6966    1.3051 H   0  0  0  0  0  0  0  0  0  0  0  0
   -1.8561    1.5369    0.8819 H   0  0  0  0  0  0  0  0  0  0  0  0
   -1.6196    2.1039   -0.8354 H   0  0  0  0  0  0  0  0  0  0  0  0
   -3.7499    0.9685   -1.1533 H   0  0  0  0  0  0  0  0  0  0  0  0
  1  2  1  0
  2  3  1  0
  3  4  2  0
  3  5  1  0
  5  6  1  0
  6  7  1  0
  7  8  1  0
  7  9  1  0
  9 10  1  0
  1 11  1  0
  1 12  1  0
  1 13  1  0
  2 14  1  0
  5 15  1  0
  5 16  1  0
  6 17  1  0
  7 18  1  6
  8 19  1  0
  8 20  1  0
  8 21  1  0
  9 22  1  0
  9 23  1  0
 10 24  1  0
M  END
$$$$

     RDKit          3D

 24 23  0  0  0  0  0  0  0  0999 V2000
    3.9085   -0.3794   -0.3384 C   0  0  0  0  0  0  0  0  0  0  0  0
    2.8619   -0.0661    0.5938 N   0  0  0  0  0  0  0  0  0  0  0  0
    1.5398    0.2298    0.1013 C   0  0  0  0  0  0  0  0  0  0  0  0
    1.3554    0.2002   -1.1315 O   0  0  0  0  0  0  0  0  0  0  0  0
    0.4443    0.5556    1.0352 C   0  0  0  0  0  0  0  0  0  0  0  0
   -0.7913    0.8226    0.4252 N   0  0  0  0  0  0  0  0  0  0  0  0
   -1.4706   -0.2336   -0.2186 C   0  0  1  0  0  0  0  0  0  0  0  0
   -1.8392   -1.3295    0.7523 C   0  0  0  0  0  0  0  0  0  0  0  0
   -2.8035    0.3401   -0.7206 C   0  0  0  0  0  0  0  0  0  0  0  0
   -2.5989    1.3897   -1.6139 O   0  0  0  0  0  0  0  0  0  0  0  0
    4.0932    0.4177   -1.0583 H   0  0  0  0  0  0  0  0  0  0  0  0
    3.6645   -1.3126   -0.8933 H   0  0  0  0  0  0  0  0  0  0  0  0
    4.8522   -0.5630    0.2256 H   0  0  0  0  0  0  0  0  0  0  0  0
    3.0437   -0.0500    1.6198 H   0  0  0  0  0  0  0  0  0  0  0  0
    0.3278   -0.2122    1.8273 H   0  0  0  0  0  0  0  0  0  0  0  0
    0.7612    1.4935    1.5794 H   0  0  0  0  0  0  0  0  0  0  0  0
   -1.0610    1.7682    0.1933 H   0  0  0  0  0  0  0  0  0  0  0  0
   -0.9672   -0.6923   -1.0779 H   0  0  0  0  0  0  0  0  0  0  0  0
   -1.9344   -0.9679    1.7898 H   0  0  0  0  0  0  0  0  0  0  0  0
   -1.0959   -2.1768    0.6878 H   0  0  0  0  0  0  0  0  0  0  0  0
   -2.7940   -1.7741    0.4082 H   0  0  0  0  0  0  0  0  0  0  0  0
   -3.4162    0.7043    0.1256 H   0  0  0  0  0  0  0  0  0  0  0  0
   -3.3965   -0.4329   -1.2358 H   0  0  0  0  0  0  0  0  0  0  0  0
   -2.6839    2.2683   -1.2023 H   0  0  0  0  0  0  0  0  0  0  0  0
  1  2  1  0
  2  3  1  0
  3  4  2  0
  3  5  1  0
  5  6  1  0
  6  7  1  0
  7  8  1  0
  7  9  1  0
  9 10  1  0
  1 11  1  0
  1 12  1  0
  1 13  1  0
  2 14  1  0
  5 15  1  0
  5 16  1  0
  6 17  1  0
  7 18  1  6
  8 19  1  0
  8 20  1  0
  8 21  1  0
  9 22  1  0
  9 23  1  0
 10 24  1  0
M  END
$$$$
