
     RDKit          3D

 22 21  0  0  0  0  0  0  0  0999 V2000
    3.1097   -0.2308    0.2823 C   0  0  0  0  0  0  0  0  0  0  0  0
    1.6694    0.1624    0.0160 C   0  0  0  0  0  0  0  0  0  0  0  0
    1.5857    1.3661   -0.2583 O   0  0  0  0  0  0  0  0  0  0  0  0
    0.5722   -0.7257    0.0736 N   0  0  0  0  0  0  0  0  0  0  0  0
   -0.7088   -0.1947   -0.0806 C   0  0  0  0  0  0  0  0  0  0  0  0
   -0.9719    0.5374   -1.4206 C   0  0  0  0  0  0  0  0  0  0  0  0
   -0.7769    1.8845   -1.1536 O   0  0  0  0  0  0  0  0  0  0  0  0
   -1.1497    0.5985    1.0091 C   0  0  0  0  0  0  0  0  0  0  0  0
   -2.2292    0.3861    1.6134 O   0  0  0  0  0  0  0  0  0  0  0  0
   -0.3561    1.6034    1.4708 O   0  0  0  0  0  0  0  0  0  0  0  0
   -1.7803   -1.2620   -0.2205 C   0  0  0  0  0  0  0  0  0  0  0  0
   -2.6162   -1.3814   -1.0695 O   0  0  0  0  0  0  0  0  0  0  0  0
   -1.7184   -2.2558    0.8466 O   0  0  0  0  0  0  0  0  0  0  0  0
    3.2209   -1.2771    0.6171 H   0  0  0  0  0  0  0  0  0  0  0  0
    3.5317    0.4812    1.0472 H   0  0  0  0  0  0  0  0  0  0  0  0
    3.6804   -0.0346   -0.6463 H   0  0  0  0  0  0  0  0  0  0  0  0
    0.8292   -1.7263    0.3458 H   0  0  0  0  0  0  0  0  0  0  0  0
   -0.1113    0.2568   -2.1681 H   0  0  0  0  0  0  0  0  0  0  0  0
   -1.8625    0.3460   -1.9556 H   0  0  0  0  0  0  0  0  0  0  0  0
   -0.9779    2.4670   -1.9448 H   0  0  0  0  0  0  0  0  0  0  0  0
   -0.3909    1.7742    2.5315 H   0  0  0  0  0  0  0  0  0  0  0  0
   -2.5489   -2.7753    1.0644 H   0  0  0  0  0  0  0  0  0  0  0  0
  1  2  1  0
  2  3  2  0
  2  4  1  0
  4  5  1  0
  5  6  1  0
  6  7  1  0
  5  8  1  0
  8  9  2  0
  8 10  1  0
  5 11  1  0
 11 12  2  0
 11 13  1  0
  1 14  1  0
  1 15  1  0
  1 16  1  0
  4 17  1  0
  6 18  1  0
  6 19  1  0
  7 20  1  0
 10 21  1  0
 13 22  1  0
M  END
$$$$

     RDKit          3D

 22 21  0  0  0  0  0  0  0  0999 V2000
    3.0557   -0.9570   -0.6910 C   0  0  0  0  0  0  0  0  0  0  0  0
    1.8878   -0.1702   -0.2563 C   0  0  0  0  0  0  0  0  0  0  0  0
    2.0704    0.9689    0.2663 O   0  0  0  0  0  0  0  0  0  0  0  0
    0.5731   -0.6933   -0.4263 N   0  0  0  0  0  0  0  0  0  0  0  0
   -0.5659    0.0895    0.0049 C   0  0  0  0  0  0  0  0  0  0  0  0
   -1.8364   -0.7018   -0.2931 C   0  0  0  0  0  0  0  0  0  0  0  0
   -1.8641   -1.9153    0.3622 O   0  0  0  0  0  0  0  0  0  0  0  0
   -0.6811    1.3620   -0.7458 C   0  0  0  0  0  0  0  0  0  0  0  0
    0.1704    1.6160   -1.6265 O   0  0  0  0  0  0  0  0  0  0  0  0
   -1.6769    2.2941   -0.5339 O   0  0  0  0  0  0  0  0  0  0  0  0
   -0.4626    0.3736    1.4670 C   0  0  0  0  0  0  0  0  0  0  0  0
    0.5025   -0.0399    2.1585 O   0  0  0  0  0  0  0  0  0  0  0  0
   -1.4409    1.1117    2.1147 O   0  0  0  0  0  0  0  0  0  0  0  0
    3.8752   -0.8758    0.0691 H   0  0  0  0  0  0  0  0  0  0  0  0
    3.4341   -0.6441   -1.6963 H   0  0  0  0  0  0  0  0  0  0  0  0
    2.7561   -2.0194   -0.7447 H   0  0  0  0  0  0  0  0  0  0  0  0
    0.4471   -1.6345   -0.8595 H   0  0  0  0  0  0  0  0  0  0  0  0
   -1.8928   -0.7881   -1.3918 H   0  0  0  0  0  0  0  0  0  0  0  0
   -2.7264   -0.1234    0.0310 H   0  0  0  0  0  0  0  0  0  0  0  0
   -2.4167   -1.8704    1.1980 H   0  0  0  0  0  0  0  0  0  0  0  0
   -2.0389    2.9006   -1.2855 H   0  0  0  0  0  0  0  0  0  0  0  0
   -1.1697    1.7167    2.8790 H   0  0  0  0  0  0  0  0  0  0  0  0
  1  2  1  0
  2  3  2  0
  2  4  1  0
  4  5  1  0
  5  6  1  0
  6  7  1  0
  5  8  1  0
  8  9  2  0
  8 10  1  0
  5 11  1  0
 11 12  2  0
 11 13  1  0
  1 14  1  0
  1 15  1  0
  1 16  1  0
  4 17  1  0
  6 18  1  0
  6 19  1  0
  7 20  1  0
 10 21  1  0
 13 22  1  0
M  END
$$$$

     RDKit          3D

 22 21  0  0  0  0  0  0  0  0999 V2000
    3.2663    0.2420    0.1597 C   0  0  0  0  0  0  0  0  0  0  0  0
    1.8778   -0.2671    0.4277 C   0  0  0  0  0  0  0  0  0  0  0  0
    1.6961   -1.0818    1.2942 O   0  0  0  0  0  0  0  0  0  0  0  0
    0.8307    0.3242   -0.3533 N   0  0  0  0  0  0  0  0  0  0  0  0
   -0.5296   -0.0096   -0.2008 C   0  0  0  0  0  0  0  0  0  0  0  0
   -0.8326   -1.4860   -0.2422 C   0  0  0  0  0  0  0  0  0  0  0  0
   -2.2349   -1.6312   -0.3440 O   0  0  0  0  0  0  0  0  0  0  0  0
   -1.0599    0.6433    1.0373 C   0  0  0  0  0  0  0  0  0  0  0  0
   -0.5840    1.7445    1.3286 O   0  0  0  0  0  0  0  0  0  0  0  0
   -2.0141    0.0328    1.7859 O   0  0  0  0  0  0  0  0  0  0  0  0
   -1.4153    0.5850   -1.2993 C   0  0  0  0  0  0  0  0  0  0  0  0
   -2.1361    0.1209   -2.0471 O   0  0  0  0  0  0  0  0  0  0  0  0
   -1.2351    2.0205   -1.2536 O   0  0  0  0  0  0  0  0  0  0  0  0
    3.4420    0.2565   -0.9120 H   0  0  0  0  0  0  0  0  0  0  0  0
    4.0158   -0.3014    0.7689 H   0  0  0  0  0  0  0  0  0  0  0  0
    3.1929    1.3326    0.4796 H   0  0  0  0  0  0  0  0  0  0  0  0
    1.0904    1.0641   -1.0377 H   0  0  0  0  0  0  0  0  0  0  0  0
   -0.5756   -1.9036    0.7947 H   0  0  0  0  0  0  0  0  0  0  0  0
   -0.2686   -2.0597   -0.9580 H   0  0  0  0  0  0  0  0  0  0  0  0
   -2.4983   -2.5989   -0.3915 H   0  0  0  0  0  0  0  0  0  0  0  0
   -2.1991    0.3289    2.7157 H   0  0  0  0  0  0  0  0  0  0  0  0
   -1.8290    2.6438   -1.7527 H   0  0  0  0  0  0  0  0  0  0  0  0
  1  2  1  0
  2  3  2  0
  2  4  1  0
  4  5  1  0
  5  6  1  0
  6  7  1  0
  5  8  1  0
  8  9  2  0
  8 10  1  0
  5 11  1  0
 11 12  2  0
 11 13  1  0
  1 14  1  0
  1 15  1  0
  1 16  1  0
  4 17  1  0
  6 18  1  0
  6 19  1  0
  7 20  1  0
 10 21  1  0
 13 22  1  0
M  END
$$$$

     RDKit          3D

 22 21  0  0  0  0  0  0  0  0999 V2000
    3.0546    0.5435    0.1998 C   0  0  0  0  0  0  0  0  0  0  0  0
    1.6637    0.5325   -0.4712 C   0  0  0  0  0  0  0  0  0  0  0  0
    1.5033    1.0819   -1.5822 O   0  0  0  0  0  0  0  0  0  0  0  0
    0.6601   -0.0774    0.2101 N   0  0  0  0  0  0  0  0  0  0  0  0
   -0.7272   -0.2859   -0.0313 C   0  0  0  0  0  0  0  0  0  0  0  0
   -1.0675   -1.0632   -1.2258 C   0  0  0  0  0  0  0  0  0  0  0  0
   -0.4115   -2.3126   -1.3131 O   0  0  0  0  0  0  0  0  0  0  0  0
   -1.4887   -0.5226    1.1568 C   0  0  0  0  0  0  0  0  0  0  0  0
   -2.6167    0.0174    1.3573 O   0  0  0  0  0  0  0  0  0  0  0  0
   -1.0681   -1.3672    2.2225 O   0  0  0  0  0  0  0  0  0  0  0  0
   -1.2239    1.1551   -0.4374 C   0  0  0  0  0  0  0  0  0  0  0  0
   -0.7403    1.7113   -1.3834 O   0  0  0  0  0  0  0  0  0  0  0  0
   -2.2189    1.7773    0.3175 O   0  0  0  0  0  0  0  0  0  0  0  0
    3.7550    1.1065   -0.4078 H   0  0  0  0  0  0  0  0  0  0  0  0
    2.9183    1.0624    1.2067 H   0  0  0  0  0  0  0  0  0  0  0  0
    3.4326   -0.4871    0.3642 H   0  0  0  0  0  0  0  0  0  0  0  0
    0.9616   -0.6124    1.1677 H   0  0  0  0  0  0  0  0  0  0  0  0
   -2.1789   -1.3634   -1.1686 H   0  0  0  0  0  0  0  0  0  0  0  0
   -1.0199   -0.4753   -2.1538 H   0  0  0  0  0  0  0  0  0  0  0  0
    0.5632   -2.1068   -1.5151 H   0  0  0  0  0  0  0  0  0  0  0  0
   -1.4182   -1.1259    3.1759 H   0  0  0  0  0  0  0  0  0  0  0  0
   -2.3326    2.8118    0.3112 H   0  0  0  0  0  0  0  0  0  0  0  0
  1  2  1  0
  2  3  2  0
  2  4  1  0
  4  5  1  0
  5  6  1  0
  6  7  1  0
  5  8  1  0
  8  9  2  0
  8 10  1  0
  5 11  1  0
 11 12  2  0
 11 13  1  0
  1 14  1  0
  1 15  1  0
  1 16  1  0
  4 17  1  0
  6 18  1  0
  6 19  1  0
  7 20  1  0
 10 21  1  0
 13 22  1  0
M  END
$$$$

     RDKit          3D

 22 21  0  0  0  0  0  0  0  0999 V2000
    2.6556   -1.9687    0.3764 C   0  0  0  0  0  0  0  0  0  0  0  0
    1.3034   -1.3400    0.5576 C   0  0  0  0  0  0  0  0  0  0  0  0
    0.5030   -1.8088    1.3979 O   0  0  0  0  0  0  0  0  0  0  0  0
    0.8923   -0.2182   -0.1987 N   0  0  0  0  0  0  0  0  0  0  0  0
   -0.3477    0.4666   -0.1323 C   0  0  0  0  0  0  0  0  0  0  0  0
   -1.5647   -0.3425   -0.4770 C   0  0  0  0  0  0  0  0  0  0  0  0
   -1.8051   -1.4349    0.3060 O   0  0  0  0  0  0  0  0  0  0  0  0
   -0.3248    1.5902   -1.1394 C   0  0  0  0  0  0  0  0  0  0  0  0
    0.6912    1.7739   -1.8530 O   0  0  0  0  0  0  0  0  0  0  0  0
   -1.4176    2.4275   -1.2879 O   0  0  0  0  0  0  0  0  0  0  0  0
   -0.5863    1.1311    1.1755 C   0  0  0  0  0  0  0  0  0  0  0  0
    0.2947    1.0250    2.0531 O   0  0  0  0  0  0  0  0  0  0  0  0
   -1.7215    1.8514    1.4635 O   0  0  0  0  0  0  0  0  0  0  0  0
    2.9536   -2.5488    1.2498 H   0  0  0  0  0  0  0  0  0  0  0  0
    2.6786   -2.6072   -0.5098 H   0  0  0  0  0  0  0  0  0  0  0  0
    3.3970   -1.1334    0.2443 H   0  0  0  0  0  0  0  0  0  0  0  0
    1.6257    0.1287   -0.8919 H   0  0  0  0  0  0  0  0  0  0  0  0
   -2.4374    0.3691   -0.3901 H   0  0  0  0  0  0  0  0  0  0  0  0
   -1.5523   -0.6093   -1.5728 H   0  0  0  0  0  0  0  0  0  0  0  0
   -1.9527   -2.2469   -0.2643 H   0  0  0  0  0  0  0  0  0  0  0  0
   -1.5580    2.8494   -2.2146 H   0  0  0  0  0  0  0  0  0  0  0  0
   -1.7270    2.6460    2.1079 H   0  0  0  0  0  0  0  0  0  0  0  0
  1  2  1  0
  2  3  2  0
  2  4  1  0
  4  5  1  0
  5  6  1  0
  6  7  1  0
  5  8  1  0
  8  9  2  0
  8 10  1  0
  5 11  1  0
 11 12  2  0
 11 13  1  0
  1 14  1  0
  1 15  1  0
  1 16  1  0
  4 17  1  0
  6 18  1  0
  6 19  1  0
  7 20  1  0
 10 21  1  0
 13 22  1  0
M  END
$$$$

     RDKit          3D

 22 21  0  0  0  0  0  0  0  0999 V2000
    3.2783   -0.0358    0.3442 C   0  0  0  0  0  0  0  0  0  0  0  0
    1.8292    0.1399    0.7122 C   0  0  0  0  0  0  0  0  0  0  0  0
    1.3880    0.4379    1.8012 O   0  0  0  0  0  0  0  0  0  0  0  0
    0.8992   -0.0614   -0.3389 N   0  0  0  0  0  0  0  0  0  0  0  0
   -0.5359    0.0675   -0.1832 C   0  0  0  0  0  0  0  0  0  0  0  0
   -1.2113   -0.2396   -1.5195 C   0  0  0  0  0  0  0  0  0  0  0  0
   -2.5760   -0.1233   -1.3931 O   0  0  0  0  0  0  0  0  0  0  0  0
   -0.9331   -1.1759    0.6561 C   0  0  0  0  0  0  0  0  0  0  0  0
   -0.0835   -2.0045    0.9430 O   0  0  0  0  0  0  0  0  0  0  0  0
   -2.2408   -1.3094    1.0577 O   0  0  0  0  0  0  0  0  0  0  0  0
   -1.0174    1.2559    0.4584 C   0  0  0  0  0  0  0  0  0  0  0  0
   -1.3196    1.1300    1.7944 O   0  0  0  0  0  0  0  0  0  0  0  0
   -1.2093    2.4746    0.0279 O   0  0  0  0  0  0  0  0  0  0  0  0
    3.4521   -1.1095   -0.0054 H   0  0  0  0  0  0  0  0  0  0  0  0
    3.9201    0.2512    1.1375 H   0  0  0  0  0  0  0  0  0  0  0  0
    3.4713    0.5815   -0.5855 H   0  0  0  0  0  0  0  0  0  0  0  0
    1.2910   -0.3115   -1.3009 H   0  0  0  0  0  0  0  0  0  0  0  0
   -0.9473   -1.2993   -1.8494 H   0  0  0  0  0  0  0  0  0  0  0  0
   -0.8259    0.4104   -2.3202 H   0  0  0  0  0  0  0  0  0  0  0  0
   -2.9752   -0.7516   -2.0133 H   0  0  0  0  0  0  0  0  0  0  0  0
   -2.4547   -1.6622    2.0141 H   0  0  0  0  0  0  0  0  0  0  0  0
   -1.1988    3.3350    0.5628 H   0  0  0  0  0  0  0  0  0  0  0  0
  1  2  1  0
  2  3  2  0
  2  4  1  0
  4  5  1  0
  5  6  1  0
  6  7  1  0
  5  8  1  0
  8  9  2  0
  8 10  1  0
  5 11  1  0
 11 12  2  0
 11 13  1  0
  1 14  1  0
  1 15  1  0
  1 16  1  0
  4 17  1  0
  6 18  1  0
  6 19  1  0
  7 20  1  0
 10 21  1  0
 13 22  1  0
M  END
$$$$

     RDKit          3D

 22 21  0  0  0  0  0  0  0  0999 V2000
    3.2102   -0.0244    0.1857 C   0  0  0  0  0  0  0  0  0  0  0  0
    1.7610    0.0690    0.5794 C   0  0  0  0  0  0  0  0  0  0  0  0
    1.4309    0.3661    1.7602 O   0  0  0  0  0  0  0  0  0  0  0  0
    0.7886   -0.1881   -0.4215 N   0  0  0  0  0  0  0  0  0  0  0  0
   -0.6269   -0.1151   -0.1160 C   0  0  0  0  0  0  0  0  0  0  0  0
   -1.3952   -0.4572   -1.3761 C   0  0  0  0  0  0  0  0  0  0  0  0
   -1.1386    0.3874   -2.4166 O   0  0  0  0  0  0  0  0  0  0  0  0
   -0.9599    1.2439    0.3733 C   0  0  0  0  0  0  0  0  0  0  0  0
   -0.0348    2.0875    0.4396 O   0  0  0  0  0  0  0  0  0  0  0  0
   -2.2159    1.6383    0.7585 O   0  0  0  0  0  0  0  0  0  0  0  0
   -0.9872   -1.0577    0.9681 C   0  0  0  0  0  0  0  0  0  0  0  0
   -0.1184   -1.7896    1.4999 O   0  0  0  0  0  0  0  0  0  0  0  0
   -2.2830   -1.1735    1.4390 O   0  0  0  0  0  0  0  0  0  0  0  0
    3.5163   -1.0655    0.4143 H   0  0  0  0  0  0  0  0  0  0  0  0
    3.7489    0.6974    0.8444 H   0  0  0  0  0  0  0  0  0  0  0  0
    3.3352    0.2462   -0.8704 H   0  0  0  0  0  0  0  0  0  0  0  0
    1.1254   -0.4320   -1.3870 H   0  0  0  0  0  0  0  0  0  0  0  0
   -2.4742   -0.4113   -1.1102 H   0  0  0  0  0  0  0  0  0  0  0  0
   -1.1538   -1.4919   -1.6936 H   0  0  0  0  0  0  0  0  0  0  0  0
   -0.3788    0.9797   -2.1689 H   0  0  0  0  0  0  0  0  0  0  0  0
   -2.5574    2.5715    0.5390 H   0  0  0  0  0  0  0  0  0  0  0  0
   -2.5925   -2.0806    1.7588 H   0  0  0  0  0  0  0  0  0  0  0  0
  1  2  1  0
  2  3  2  0
  2  4  1  0
  4  5  1  0
  5  6  1  0
  6  7  1  0
  5  8  1  0
  8  9  2  0
  8 10  1  0
  5 11  1  0
 11 12  2  0
 11 13  1  0
  1 14  1  0
  1 15  1  0
  1 16  1  0
  4 17  1  0
  6 18  1  0
  6 19  1  0
  7 20  1  0
 10 21  1  0
 13 22  1  0
M  END
$$$$

     RDKit          3D

 22 21  0  0  0  0  0  0  0  0999 V2000
    3.3835   -0.0919    0.2665 C   0  0  0  0  0  0  0  0  0  0  0  0
    1.9784    0.3365   -0.0262 C   0  0  0  0  0  0  0  0  0  0  0  0
    1.7974    1.4842   -0.4577 O   0  0  0  0  0  0  0  0  0  0  0  0
    0.8686   -0.5274    0.1760 N   0  0  0  0  0  0  0  0  0  0  0  0
   -0.5062   -0.1590   -0.0910 C   0  0  0  0  0  0  0  0  0  0  0  0
   -0.8941    1.0306    0.7729 C   0  0  0  0  0  0  0  0  0  0  0  0
   -2.1938    1.4261    0.5624 O   0  0  0  0  0  0  0  0  0  0  0  0
   -0.7234    0.1293   -1.5286 C   0  0  0  0  0  0  0  0  0  0  0  0
    0.2453    0.0311   -2.3177 O   0  0  0  0  0  0  0  0  0  0  0  0
   -1.9509    0.5029   -2.0387 O   0  0  0  0  0  0  0  0  0  0  0  0
   -1.3831   -1.2681    0.3222 C   0  0  0  0  0  0  0  0  0  0  0  0
   -0.9039   -2.3038    0.8092 O   0  0  0  0  0  0  0  0  0  0  0  0
   -2.7433   -1.1472    0.1638 O   0  0  0  0  0  0  0  0  0  0  0  0
    3.3297   -1.0109    0.8764 H   0  0  0  0  0  0  0  0  0  0  0  0
    3.9524   -0.2802   -0.6604 H   0  0  0  0  0  0  0  0  0  0  0  0
    3.9113    0.6756    0.8356 H   0  0  0  0  0  0  0  0  0  0  0  0
    1.1234   -1.4916    0.5477 H   0  0  0  0  0  0  0  0  0  0  0  0
   -0.8243    0.6805    1.8325 H   0  0  0  0  0  0  0  0  0  0  0  0
   -0.1892    1.8759    0.6825 H   0  0  0  0  0  0  0  0  0  0  0  0
   -2.8599    0.9794    1.1431 H   0  0  0  0  0  0  0  0  0  0  0  0
   -2.0421    1.0637   -2.8952 H   0  0  0  0  0  0  0  0  0  0  0  0
   -3.3757   -1.9357    0.3408 H   0  0  0  0  0  0  0  0  0  0  0  0
  1  2  1  0
  2  3  2  0
  2  4  1  0
  4  5  1  0
  5  6  1  0
  6  7  1  0
  5  8  1  0
  8  9  2  0
  8 10  1  0
  5 11  1  0
 11 12  2  0
 11 13  1  0
  1 14  1  0
  1 15  1  0
  1 16  1  0
  4 17  1  0
  6 18  1  0
  6 19  1  0
  7 20  1  0
 10 21  1  0
 13 22  1  0
M  END
$$$$
