
     RDKit          3D

 27 27  0  0  0  0  0  0  0  0999 V2000
    3.0144   -0.9269    0.6668 O   0  0  0  0  0  0  0  0  0  0  0  0
    2.3680    0.2961    0.4991 C   0  0  0  0  0  0  0  0  0  0  0  0
    0.8572    0.1033    0.3277 C   0  0  2  0  0  0  0  0  0  0  0  0
    0.6974   -0.7269   -0.8585 N   0  0  0  0  0  0  0  0  0  0  0  0
    0.1920   -2.0117   -0.4082 C   0  0  0  0  0  0  0  0  0  0  0  0
   -1.3193   -1.9379   -0.5042 C   0  0  0  0  0  0  0  0  0  0  0  0
   -1.8949   -1.0004    0.4895 C   0  0  0  0  0  0  0  0  0  0  0  0
   -1.8530    0.3180    0.7065 C   0  0  0  0  0  0  0  0  0  0  0  0
   -1.2298    1.4841    0.0857 C   0  0  2  0  0  0  0  0  0  0  0  0
   -1.7251    1.7144   -1.2193 O   0  0  0  0  0  0  0  0  0  0  0  0
    0.2708    1.4430    0.0481 C   0  0  2  0  0  0  0  0  0  0  0  0
    0.7123    1.8716   -1.2024 O   0  0  0  0  0  0  0  0  0  0  0  0
    3.9173   -0.8692    0.3097 H   0  0  0  0  0  0  0  0  0  0  0  0
    2.6018    1.0164    1.2933 H   0  0  0  0  0  0  0  0  0  0  0  0
    2.8008    0.7382   -0.4456 H   0  0  0  0  0  0  0  0  0  0  0  0
    0.4832   -0.3792    1.2400 H   0  0  0  0  0  0  0  0  0  0  0  0
    0.0420   -0.2986   -1.5412 H   0  0  0  0  0  0  0  0  0  0  0  0
    0.5240   -2.7691   -1.1391 H   0  0  0  0  0  0  0  0  0  0  0  0
    0.5350   -2.2770    0.6063 H   0  0  0  0  0  0  0  0  0  0  0  0
   -1.7074   -2.9564   -0.2922 H   0  0  0  0  0  0  0  0  0  0  0  0
   -1.5712   -1.6902   -1.5451 H   0  0  0  0  0  0  0  0  0  0  0  0
   -2.5107   -1.4732    1.2445 H   0  0  0  0  0  0  0  0  0  0  0  0
   -2.4422    0.5765    1.5773 H   0  0  0  0  0  0  0  0  0  0  0  0
   -1.5152    2.3889    0.6602 H   0  0  0  0  0  0  0  0  0  0  0  0
   -2.4498    2.3875   -1.2177 H   0  0  0  0  0  0  0  0  0  0  0  0
    0.7245    2.1639    0.7893 H   0  0  0  0  0  0  0  0  0  0  0  0
    0.4779    2.8146   -1.3810 H   0  0  0  0  0  0  0  0  0  0  0  0
  1  2  1  0
  2  3  1  0
  3  4  1  0
  4  5  1  0
  5  6  1  0
  6  7  1  0
  7  8  2  3
  8  9  1  0
  9 10  1  0
  9 11  1  0
 11 12  1  0
 11  3  1  0
  1 13  1  0
  2 14  1  0
  2 15  1  0
  3 16  1  1
  4 17  1  0
  5 18  1  0
  5 19  1  0
  6 20  1  0
  6 21  1  0
  7 22  1  0
  8 23  1  0
  9 24  1  1
 10 25  1  0
 11 26  1  1
 12 27  1  0
M  END
$$$$

     RDKit          3D

 27 27  0  0  0  0  0  0  0  0999 V2000
    3.1567   -0.2141    0.3468 O   0  0  0  0  0  0  0  0  0  0  0  0
    2.3996    0.0215   -0.8090 C   0  0  0  0  0  0  0  0  0  0  0  0
    0.9093    0.1009   -0.4457 C   0  0  2  0  0  0  0  0  0  0  0  0
    0.7044    1.1820    0.4929 N   0  0  0  0  0  0  0  0  0  0  0  0
   -0.3697    1.9997   -0.0057 C   0  0  0  0  0  0  0  0  0  0  0  0
   -1.7220    1.5305    0.4438 C   0  0  0  0  0  0  0  0  0  0  0  0
   -2.2883    0.4350   -0.3210 C   0  0  0  0  0  0  0  0  0  0  0  0
   -1.9090   -0.8135   -0.5841 C   0  0  0  0  0  0  0  0  0  0  0  0
   -0.8195   -1.7155   -0.2898 C   0  0  2  0  0  0  0  0  0  0  0  0
   -1.2595   -2.6712    0.6568 O   0  0  0  0  0  0  0  0  0  0  0  0
    0.4496   -1.1449    0.2159 C   0  0  2  0  0  0  0  0  0  0  0  0
    0.3648   -0.9864    1.6108 O   0  0  0  0  0  0  0  0  0  0  0  0
    4.0849    0.0709    0.1224 H   0  0  0  0  0  0  0  0  0  0  0  0
    2.5031   -0.7625   -1.5626 H   0  0  0  0  0  0  0  0  0  0  0  0
    2.7512    0.9933   -1.2084 H   0  0  0  0  0  0  0  0  0  0  0  0
    0.3763    0.2400   -1.3981 H   0  0  0  0  0  0  0  0  0  0  0  0
    1.5729    1.7191    0.6935 H   0  0  0  0  0  0  0  0  0  0  0  0
   -0.2204    3.0224    0.4472 H   0  0  0  0  0  0  0  0  0  0  0  0
   -0.2674    2.1300   -1.0845 H   0  0  0  0  0  0  0  0  0  0  0  0
   -1.6519    1.3410    1.5428 H   0  0  0  0  0  0  0  0  0  0  0  0
   -2.3951    2.4290    0.3577 H   0  0  0  0  0  0  0  0  0  0  0  0
   -3.2375    0.6571   -0.7978 H   0  0  0  0  0  0  0  0  0  0  0  0
   -2.6431   -1.3229   -1.2192 H   0  0  0  0  0  0  0  0  0  0  0  0
   -0.5959   -2.3127   -1.2033 H   0  0  0  0  0  0  0  0  0  0  0  0
   -1.8851   -2.2609    1.2998 H   0  0  0  0  0  0  0  0  0  0  0  0
    1.2543   -1.9193    0.0680 H   0  0  0  0  0  0  0  0  0  0  0  0
    0.7372   -1.7486    2.0990 H   0  0  0  0  0  0  0  0  0  0  0  0
  1  2  1  0
  2  3  1  0
  3  4  1  0
  4  5  1  0
  5  6  1  0
  6  7  1  0
  7  8  2  3
  8  9  1  0
  9 10  1  0
  9 11  1  0
 11 12  1  0
 11  3  1  0
  1 13  1  0
  2 14  1  0
  2 15  1  0
  3 16  1  6
  4 17  1  0
  5 18  1  0
  5 19  1  0
  6 20  1  0
  6 21  1  0
  7 22  1  0
  8 23  1  0
  9 24  1  6
 10 25  1  0
 11 26  1  1
 12 27  1  0
M  END
$$$$

     RDKit          3D

 27 27  0  0  0  0  0  0  0  0999 V2000
    0.1034    2.7935   -1.2988 O   0  0  0  0  0  0  0  0  0  0  0  0
   -0.4737    1.5058   -1.1814 C   0  0  0  0  0  0  0  0  0  0  0  0
   -0.4114    1.1886    0.3211 C   0  0  2  0  0  0  0  0  0  0  0  0
    0.9358    1.2111    0.7017 N   0  0  0  0  0  0  0  0  0  0  0  0
    1.5764    0.0672    1.1784 C   0  0  0  0  0  0  0  0  0  0  0  0
    2.0820   -0.8605    0.0644 C   0  0  0  0  0  0  0  0  0  0  0  0
    1.1196   -1.9849    0.0031 C   0  0  0  0  0  0  0  0  0  0  0  0
   -0.1934   -2.0658   -0.1186 C   0  0  0  0  0  0  0  0  0  0  0  0
   -1.3227   -1.1029   -0.2504 C   0  0  2  0  0  0  0  0  0  0  0  0
   -1.5097   -0.7429   -1.5733 O   0  0  0  0  0  0  0  0  0  0  0  0
   -1.2508    0.0457    0.7001 C   0  0  2  0  0  0  0  0  0  0  0  0
   -2.5877    0.4967    0.8567 O   0  0  0  0  0  0  0  0  0  0  0  0
    0.0118    3.3020   -0.4559 H   0  0  0  0  0  0  0  0  0  0  0  0
    0.1860    0.8459   -1.7654 H   0  0  0  0  0  0  0  0  0  0  0  0
   -1.4977    1.5934   -1.5457 H   0  0  0  0  0  0  0  0  0  0  0  0
   -0.8856    2.1109    0.7878 H   0  0  0  0  0  0  0  0  0  0  0  0
    1.2959    2.1017    1.1114 H   0  0  0  0  0  0  0  0  0  0  0  0
    1.0418   -0.5285    1.9528 H   0  0  0  0  0  0  0  0  0  0  0  0
    2.5254    0.3946    1.7053 H   0  0  0  0  0  0  0  0  0  0  0  0
    2.0931   -0.3365   -0.9171 H   0  0  0  0  0  0  0  0  0  0  0  0
    3.0860   -1.2503    0.2742 H   0  0  0  0  0  0  0  0  0  0  0  0
    1.5911   -2.9511    0.0728 H   0  0  0  0  0  0  0  0  0  0  0  0
   -0.4890   -3.1172   -0.1192 H   0  0  0  0  0  0  0  0  0  0  0  0
   -2.2479   -1.6923    0.0281 H   0  0  0  0  0  0  0  0  0  0  0  0
   -0.8851   -1.2774   -2.1550 H   0  0  0  0  0  0  0  0  0  0  0  0
   -0.9644   -0.3327    1.6874 H   0  0  0  0  0  0  0  0  0  0  0  0
   -2.9291    0.5857   -0.0645 H   0  0  0  0  0  0  0  0  0  0  0  0
  1  2  1  0
  2  3  1  0
  3  4  1  0
  4  5  1  0
  5  6  1  0
  6  7  1  0
  7  8  2  3
  8  9  1  0
  9 10  1  0
  9 11  1  0
 11 12  1  0
 11  3  1  0
  1 13  1  0
  2 14  1  0
  2 15  1  0
  3 16  1  1
  4 17  1  0
  5 18  1  0
  5 19  1  0
  6 20  1  0
  6 21  1  0
  7 22  1  0
  8 23  1  0
  9 24  1  1
 10 25  1  0
 11 26  1  1
 12 27  1  0
M  END
$$$$

     RDKit          3D

 27 27  0  0  0  0  0  0  0  0999 V2000
    2.9993    0.6956    0.7952 O   0  0  0  0  0  0  0  0  0  0  0  0
    2.4238   -0.3420    0.0902 C   0  0  0  0  0  0  0  0  0  0  0  0
    0.8971   -0.2649    0.0929 C   0  0  2  0  0  0  0  0  0  0  0  0
    0.3991   -1.3500   -0.6409 N   0  0  0  0  0  0  0  0  0  0  0  0
   -0.6657   -2.0906   -0.1313 C   0  0  0  0  0  0  0  0  0  0  0  0
   -1.9871   -1.3628   -0.0539 C   0  0  0  0  0  0  0  0  0  0  0  0
   -2.0148   -0.2677    0.9061 C   0  0  0  0  0  0  0  0  0  0  0  0
   -1.4381    0.9154    1.0686 C   0  0  0  0  0  0  0  0  0  0  0  0
   -0.4496    1.7631    0.3554 C   0  0  2  0  0  0  0  0  0  0  0  0
   -1.0893    2.7888   -0.3185 O   0  0  0  0  0  0  0  0  0  0  0  0
    0.4302    1.0188   -0.5786 C   0  0  2  0  0  0  0  0  0  0  0  0
   -0.2655    0.7642   -1.7553 O   0  0  0  0  0  0  0  0  0  0  0  0
    3.9035    0.3845    1.0765 H   0  0  0  0  0  0  0  0  0  0  0  0
    2.6811   -1.2976    0.6013 H   0  0  0  0  0  0  0  0  0  0  0  0
    2.7619   -0.4169   -0.9549 H   0  0  0  0  0  0  0  0  0  0  0  0
    0.5828   -0.3246    1.1411 H   0  0  0  0  0  0  0  0  0  0  0  0
    0.8044   -1.5814   -1.5314 H   0  0  0  0  0  0  0  0  0  0  0  0
   -0.8386   -2.9815   -0.7729 H   0  0  0  0  0  0  0  0  0  0  0  0
   -0.3948   -2.5016    0.8747 H   0  0  0  0  0  0  0  0  0  0  0  0
   -2.2360   -1.0399   -1.1033 H   0  0  0  0  0  0  0  0  0  0  0  0
   -2.7446   -2.1381    0.1908 H   0  0  0  0  0  0  0  0  0  0  0  0
   -2.6944   -0.4608    1.7237 H   0  0  0  0  0  0  0  0  0  0  0  0
   -1.7574    1.4476    1.9761 H   0  0  0  0  0  0  0  0  0  0  0  0
    0.2070    2.2373    1.1416 H   0  0  0  0  0  0  0  0  0  0  0  0
   -0.5182    3.1917   -1.0138 H   0  0  0  0  0  0  0  0  0  0  0  0
    1.2867    1.6682   -0.8487 H   0  0  0  0  0  0  0  0  0  0  0  0
   -0.2828    1.5453   -2.3311 H   0  0  0  0  0  0  0  0  0  0  0  0
  1  2  1  0
  2  3  1  0
  3  4  1  0
  4  5  1  0
  5  6  1  0
  6  7  1  0
  7  8  2  3
  8  9  1  0
  9 10  1  0
  9 11  1  0
 11 12  1  0
 11  3  1  0
  1 13  1  0
  2 14  1  0
  2 15  1  0
  3 16  1  1
  4 17  1  0
  5 18  1  0
  5 19  1  0
  6 20  1  0
  6 21  1  0
  7 22  1  0
  8 23  1  0
  9 24  1  1
 10 25  1  0
 11 26  1  6
 12 27  1  0
M  END
$$$$

     RDKit          3D

 27 27  0  0  0  0  0  0  0  0999 V2000
    3.0149   -0.8343   -0.8222 O   0  0  0  0  0  0  0  0  0  0  0  0
    2.2517   -0.9432    0.3281 C   0  0  0  0  0  0  0  0  0  0  0  0
    0.7953   -0.5347    0.0656 C   0  0  2  0  0  0  0  0  0  0  0  0
    0.2035   -1.3554   -0.9236 N   0  0  0  0  0  0  0  0  0  0  0  0
   -1.1962   -1.4682   -0.9324 C   0  0  0  0  0  0  0  0  0  0  0  0
   -1.9086   -1.1776    0.3455 C   0  0  0  0  0  0  0  0  0  0  0  0
   -2.1671    0.2566    0.5755 C   0  0  0  0  0  0  0  0  0  0  0  0
   -1.4396    1.3576    0.7303 C   0  0  0  0  0  0  0  0  0  0  0  0
   -0.0157    1.7194    0.7532 C   0  0  2  0  0  0  0  0  0  0  0  0
    0.1801    3.0735    0.5925 O   0  0  0  0  0  0  0  0  0  0  0  0
    0.7778    0.9418   -0.2818 C   0  0  2  0  0  0  0  0  0  0  0  0
    0.2938    1.1829   -1.5571 O   0  0  0  0  0  0  0  0  0  0  0  0
    3.7328   -1.5397   -0.7407 H   0  0  0  0  0  0  0  0  0  0  0  0
    2.6200   -0.3336    1.1665 H   0  0  0  0  0  0  0  0  0  0  0  0
    2.1943   -2.0220    0.6320 H   0  0  0  0  0  0  0  0  0  0  0  0
    0.2891   -0.6637    1.0337 H   0  0  0  0  0  0  0  0  0  0  0  0
    0.5450   -1.1696   -1.8920 H   0  0  0  0  0  0  0  0  0  0  0  0
   -1.4590   -2.5283   -1.2245 H   0  0  0  0  0  0  0  0  0  0  0  0
   -1.6921   -0.8461   -1.7277 H   0  0  0  0  0  0  0  0  0  0  0  0
   -2.9254   -1.6690    0.2496 H   0  0  0  0  0  0  0  0  0  0  0  0
   -1.4613   -1.6902    1.2258 H   0  0  0  0  0  0  0  0  0  0  0  0
   -3.2318    0.5464    0.6459 H   0  0  0  0  0  0  0  0  0  0  0  0
   -2.0509    2.2643    0.8862 H   0  0  0  0  0  0  0  0  0  0  0  0
    0.4505    1.4470    1.7457 H   0  0  0  0  0  0  0  0  0  0  0  0
    1.0733    3.2923    0.9662 H   0  0  0  0  0  0  0  0  0  0  0  0
    1.8127    1.3652   -0.2515 H   0  0  0  0  0  0  0  0  0  0  0  0
   -0.6872    1.3289   -1.5888 H   0  0  0  0  0  0  0  0  0  0  0  0
  1  2  1  0
  2  3  1  0
  3  4  1  0
  4  5  1  0
  5  6  1  0
  6  7  1  0
  7  8  2  3
  8  9  1  0
  9 10  1  0
  9 11  1  0
 11 12  1  0
 11  3  1  0
  1 13  1  0
  2 14  1  0
  2 15  1  0
  3 16  1  1
  4 17  1  0
  5 18  1  0
  5 19  1  0
  6 20  1  0
  6 21  1  0
  7 22  1  0
  8 23  1  0
  9 24  1  1
 10 25  1  0
 11 26  1  6
 12 27  1  0
M  END
$$$$

     RDKit          3D

 27 27  0  0  0  0  0  0  0  0999 V2000
    2.4106   -0.6256    1.3496 O   0  0  0  0  0  0  0  0  0  0  0  0
    2.4666   -0.4185   -0.0205 C   0  0  0  0  0  0  0  0  0  0  0  0
    1.1120   -0.0831   -0.6123 C   0  0  2  0  0  0  0  0  0  0  0  0
    0.6326    1.1176    0.0130 N   0  0  0  0  0  0  0  0  0  0  0  0
   -0.3986    1.7771   -0.7675 C   0  0  0  0  0  0  0  0  0  0  0  0
   -1.6190    1.8956    0.1385 C   0  0  0  0  0  0  0  0  0  0  0  0
   -2.3699    0.6266    0.1810 C   0  0  0  0  0  0  0  0  0  0  0  0
   -2.0198   -0.6398    0.3610 C   0  0  0  0  0  0  0  0  0  0  0  0
   -0.7137   -1.3117    0.5967 C   0  0  2  0  0  0  0  0  0  0  0  0
   -0.1856   -0.7980    1.7654 O   0  0  0  0  0  0  0  0  0  0  0  0
    0.1754   -1.2261   -0.5836 C   0  0  2  0  0  0  0  0  0  0  0  0
    0.9283   -2.4149   -0.6948 O   0  0  0  0  0  0  0  0  0  0  0  0
    2.4992    0.2365    1.8577 H   0  0  0  0  0  0  0  0  0  0  0  0
    3.1800    0.4027   -0.2038 H   0  0  0  0  0  0  0  0  0  0  0  0
    2.8738   -1.3403   -0.5116 H   0  0  0  0  0  0  0  0  0  0  0  0
    1.3155    0.1740   -1.6924 H   0  0  0  0  0  0  0  0  0  0  0  0
    1.4501    1.7901    0.0400 H   0  0  0  0  0  0  0  0  0  0  0  0
   -0.6333    1.2348   -1.6977 H   0  0  0  0  0  0  0  0  0  0  0  0
   -0.1185    2.8095   -1.0617 H   0  0  0  0  0  0  0  0  0  0  0  0
   -1.2077    2.1428    1.1601 H   0  0  0  0  0  0  0  0  0  0  0  0
   -2.2583    2.7394   -0.1397 H   0  0  0  0  0  0  0  0  0  0  0  0
   -3.4379    0.7061    0.0388 H   0  0  0  0  0  0  0  0  0  0  0  0
   -2.8805   -1.3240    0.3269 H   0  0  0  0  0  0  0  0  0  0  0  0
   -0.9274   -2.3958    0.7924 H   0  0  0  0  0  0  0  0  0  0  0  0
   -0.7620   -1.1543    2.5116 H   0  0  0  0  0  0  0  0  0  0  0  0
   -0.4718   -1.1878   -1.5078 H   0  0  0  0  0  0  0  0  0  0  0  0
    0.9599   -2.7331   -1.6393 H   0  0  0  0  0  0  0  0  0  0  0  0
  1  2  1  0
  2  3  1  0
  3  4  1  0
  4  5  1  0
  5  6  1  0
  6  7  1  0
  7  8  2  3
  8  9  1  0
  9 10  1  0
  9 11  1  0
 11 12  1  0
 11  3  1  0
  1 13  1  0
  2 14  1  0
  2 15  1  0
  3 16  1  6
  4 17  1  0
  5 18  1  0
  5 19  1  0
  6 20  1  0
  6 21  1  0
  7 22  1  0
  8 23  1  0
  9 24  1  1
 10 25  1  0
 11 26  1  6
 12 27  1  0
M  END
$$$$

     RDKit          3D

 27 27  0  0  0  0  0  0  0  0999 V2000
    2.9253   -0.2704   -0.8742 O   0  0  0  0  0  0  0  0  0  0  0  0
    2.3282   -0.6003    0.3183 C   0  0  0  0  0  0  0  0  0  0  0  0
    0.8678   -0.2092    0.2972 C   0  0  2  0  0  0  0  0  0  0  0  0
    0.1460   -0.8671   -0.7450 N   0  0  0  0  0  0  0  0  0  0  0  0
   -0.5686   -2.0382   -0.3177 C   0  0  0  0  0  0  0  0  0  0  0  0
   -1.7225   -1.5471    0.5660 C   0  0  0  0  0  0  0  0  0  0  0  0
   -2.2113   -0.2362    0.0633 C   0  0  0  0  0  0  0  0  0  0  0  0
   -1.7737    1.0170    0.1254 C   0  0  0  0  0  0  0  0  0  0  0  0
   -0.6358    1.7539    0.6899 C   0  0  2  0  0  0  0  0  0  0  0  0
   -0.7266    3.1072    0.3386 O   0  0  0  0  0  0  0  0  0  0  0  0
    0.7056    1.2715    0.1570 C   0  0  2  0  0  0  0  0  0  0  0  0
    0.7926    1.6008   -1.2046 O   0  0  0  0  0  0  0  0  0  0  0  0
    2.6754   -0.9623   -1.5443 H   0  0  0  0  0  0  0  0  0  0  0  0
    2.3777   -1.7058    0.4601 H   0  0  0  0  0  0  0  0  0  0  0  0
    2.8326   -0.1510    1.1787 H   0  0  0  0  0  0  0  0  0  0  0  0
    0.4144   -0.5342    1.2714 H   0  0  0  0  0  0  0  0  0  0  0  0
    0.6363   -0.9550   -1.6395 H   0  0  0  0  0  0  0  0  0  0  0  0
   -0.9426   -2.5818   -1.1891 H   0  0  0  0  0  0  0  0  0  0  0  0
    0.0993   -2.6834    0.2958 H   0  0  0  0  0  0  0  0  0  0  0  0
   -2.5220   -2.3129    0.4632 H   0  0  0  0  0  0  0  0  0  0  0  0
   -1.4294   -1.5332    1.6214 H   0  0  0  0  0  0  0  0  0  0  0  0
   -3.1553   -0.3397   -0.4861 H   0  0  0  0  0  0  0  0  0  0  0  0
   -2.4787    1.6606   -0.4002 H   0  0  0  0  0  0  0  0  0  0  0  0
   -0.5703    1.7154    1.7947 H   0  0  0  0  0  0  0  0  0  0  0  0
   -0.8419    3.1310   -0.6472 H   0  0  0  0  0  0  0  0  0  0  0  0
    1.4765    1.8357    0.7522 H   0  0  0  0  0  0  0  0  0  0  0  0
    1.3011    2.4349   -1.3451 H   0  0  0  0  0  0  0  0  0  0  0  0
  1  2  1  0
  2  3  1  0
  3  4  1  0
  4  5  1  0
  5  6  1  0
  6  7  1  0
  7  8  2  3
  8  9  1  0
  9 10  1  0
  9 11  1  0
 11 12  1  0
 11  3  1  0
  1 13  1  0
  2 14  1  0
  2 15  1  0
  3 16  1  1
  4 17  1  0
  5 18  1  0
  5 19  1  0
  6 20  1  0
  6 21  1  0
  7 22  1  0
  8 23  1  0
  9 24  1  1
 10 25  1  0
 11 26  1  1
 12 27  1  0
M  END
$$$$

     RDKit          3D

 27 27  0  0  0  0  0  0  0  0999 V2000
   -3.2384    0.8524   -0.3280 O   0  0  0  0  0  0  0  0  0  0  0  0
   -2.4903   -0.3030   -0.3366 C   0  0  0  0  0  0  0  0  0  0  0  0
   -1.0147   -0.0365   -0.0091 C   0  0  2  0  0  0  0  0  0  0  0  0
   -0.4190    0.8537   -0.9526 N   0  0  0  0  0  0  0  0  0  0  0  0
    0.1363    2.0405   -0.3799 C   0  0  0  0  0  0  0  0  0  0  0  0
    1.3190    1.8189    0.4993 C   0  0  0  0  0  0  0  0  0  0  0  0
    2.1354    0.6486    0.1465 C   0  0  0  0  0  0  0  0  0  0  0  0
    1.9603   -0.6623    0.2552 C   0  0  0  0  0  0  0  0  0  0  0  0
    0.8566   -1.5123    0.7838 C   0  0  2  0  0  0  0  0  0  0  0  0
    1.2389   -2.8256    0.9010 O   0  0  0  0  0  0  0  0  0  0  0  0
   -0.3214   -1.3962   -0.1760 C   0  0  2  0  0  0  0  0  0  0  0  0
    0.1140   -1.4959   -1.4903 O   0  0  0  0  0  0  0  0  0  0  0  0
   -2.8250    1.6206    0.1003 H   0  0  0  0  0  0  0  0  0  0  0  0
   -2.9316   -1.0016    0.3989 H   0  0  0  0  0  0  0  0  0  0  0  0
   -2.5326   -0.8313   -1.3190 H   0  0  0  0  0  0  0  0  0  0  0  0
   -0.9311    0.3178    1.0384 H   0  0  0  0  0  0  0  0  0  0  0  0
   -1.0975    1.1588   -1.7013 H   0  0  0  0  0  0  0  0  0  0  0  0
    0.4749    2.6873   -1.2374 H   0  0  0  0  0  0  0  0  0  0  0  0
   -0.6442    2.6207    0.1594 H   0  0  0  0  0  0  0  0  0  0  0  0
    1.9366    2.7408    0.4960 H   0  0  0  0  0  0  0  0  0  0  0  0
    0.9565    1.6953    1.5530 H   0  0  0  0  0  0  0  0  0  0  0  0
    3.0963    0.8763   -0.3028 H   0  0  0  0  0  0  0  0  0  0  0  0
    2.7976   -1.2393   -0.1199 H   0  0  0  0  0  0  0  0  0  0  0  0
    0.4747   -1.0945    1.7612 H   0  0  0  0  0  0  0  0  0  0  0  0
    1.2501   -3.0581    1.8673 H   0  0  0  0  0  0  0  0  0  0  0  0
   -1.0141   -2.2265    0.0138 H   0  0  0  0  0  0  0  0  0  0  0  0
    0.7127   -2.2487   -1.6212 H   0  0  0  0  0  0  0  0  0  0  0  0
  1  2  1  0
  2  3  1  0
  3  4  1  0
  4  5  1  0
  5  6  1  0
  6  7  1  0
  7  8  2  3
  8  9  1  0
  9 10  1  0
  9 11  1  0
 11 12  1  0
 11  3  1  0
  1 13  1  0
  2 14  1  0
  2 15  1  0
  3 16  1  1
  4 17  1  0
  5 18  1  0
  5 19  1  0
  6 20  1  0
  6 21  1  0
  7 22  1  0
  8 23  1  0
  9 24  1  1
 10 25  1  0
 11 26  1  1
 12 27  1  0
M  END
$$$$
