
     RDKit          3D

 25 24  0  0  0  0  0  0  0  0999 V2000
   -2.1983   -1.1024    1.3665 N   0  0  0  0  0  0  0  0  0  0  0  0
   -2.1698   -0.8809   -0.0584 C   0  0  2  0  0  0  0  0  0  0  0  0
   -1.0823   -1.5234   -0.7835 C   0  0  0  0  0  0  0  0  0  0  0  0
    0.2163   -1.3429   -0.5865 C   0  0  0  0  0  0  0  0  0  0  0  0
    0.6409   -0.4123    0.4553 C   0  0  0  0  0  0  0  0  0  0  0  0
    1.4670    0.7187   -0.1221 C   0  0  1  0  0  0  0  0  0  0  0  0
    1.8236    1.5730    1.0062 N   0  0  0  0  0  0  0  0  0  0  0  0
    2.6475    0.3056   -0.8723 C   0  0  0  0  0  0  0  0  0  0  0  0
    2.5309   -0.3874   -1.9052 O   0  0  0  0  0  0  0  0  0  0  0  0
    3.9236    0.6625   -0.4711 O   0  0  0  0  0  0  0  0  0  0  0  0
   -2.3254    0.5675   -0.3918 C   0  0  0  0  0  0  0  0  0  0  0  0
   -2.3037    0.9899   -1.5735 O   0  0  0  0  0  0  0  0  0  0  0  0
   -2.5024    1.5111    0.6093 O   0  0  0  0  0  0  0  0  0  0  0  0
   -2.6173   -0.2484    1.8015 H   0  0  0  0  0  0  0  0  0  0  0  0
   -2.7384   -1.9246    1.6575 H   0  0  0  0  0  0  0  0  0  0  0  0
   -3.1388   -1.3448   -0.4189 H   0  0  0  0  0  0  0  0  0  0  0  0
   -1.3289   -2.2394   -1.5866 H   0  0  0  0  0  0  0  0  0  0  0  0
    0.9336   -1.8705   -1.1737 H   0  0  0  0  0  0  0  0  0  0  0  0
    1.3049   -0.9526    1.1850 H   0  0  0  0  0  0  0  0  0  0  0  0
   -0.1948    0.0897    0.9836 H   0  0  0  0  0  0  0  0  0  0  0  0
    0.8367    1.3482   -0.7990 H   0  0  0  0  0  0  0  0  0  0  0  0
    1.7391    2.5743    0.7797 H   0  0  0  0  0  0  0  0  0  0  0  0
    2.7862    1.3145    1.3332 H   0  0  0  0  0  0  0  0  0  0  0  0
    4.7706    0.2241   -0.8488 H   0  0  0  0  0  0  0  0  0  0  0  0
   -3.0208    2.3503    0.5125 H   0  0  0  0  0  0  0  0  0  0  0  0
  1  2  1  0
  2  3  1  0
  3  4  2  0
  4  5  1  0
  5  6  1  0
  6  7  1  0
  6  8  1  0
  8  9  2  0
  8 10  1  0
  2 11  1  0
 11 12  2  0
 11 13  1  0
  1 14  1  0
  1 15  1  0
  2 16  1  6
  3 17  1  0
  4 18  1  0
  5 19  1  0
  5 20  1  0
  6 21  1  6
  7 22  1  0
  7 23  1  0
 10 24  1  0
 13 25  1  0
M  END
$$$$

     RDKit          3D

 25 24  0  0  0  0  0  0  0  0999 V2000
   -3.2184    0.8760    0.3876 N   0  0  0  0  0  0  0  0  0  0  0  0
   -2.0769    0.1949   -0.2622 C   0  0  2  0  0  0  0  0  0  0  0  0
   -1.0421    1.1772   -0.5853 C   0  0  0  0  0  0  0  0  0  0  0  0
    0.2271    0.8608   -0.6533 C   0  0  0  0  0  0  0  0  0  0  0  0
    0.7491   -0.4850   -0.4191 C   0  0  0  0  0  0  0  0  0  0  0  0
    1.7339   -0.5209    0.7420 C   0  0  1  0  0  0  0  0  0  0  0  0
    2.1542   -1.9145    0.8437 N   0  0  0  0  0  0  0  0  0  0  0  0
    2.8942    0.3472    0.5683 C   0  0  0  0  0  0  0  0  0  0  0  0
    4.0417   -0.1774    0.5100 O   0  0  0  0  0  0  0  0  0  0  0  0
    2.8439    1.7235    0.4601 O   0  0  0  0  0  0  0  0  0  0  0  0
   -2.6246   -0.5088   -1.4323 C   0  0  0  0  0  0  0  0  0  0  0  0
   -3.8398   -0.4754   -1.7028 O   0  0  0  0  0  0  0  0  0  0  0  0
   -1.7750   -1.2222   -2.2501 O   0  0  0  0  0  0  0  0  0  0  0  0
   -3.0703    0.9470    1.4168 H   0  0  0  0  0  0  0  0  0  0  0  0
   -3.4114    1.7916   -0.0547 H   0  0  0  0  0  0  0  0  0  0  0  0
   -1.7108   -0.5044    0.5269 H   0  0  0  0  0  0  0  0  0  0  0  0
   -1.3317    2.2028   -0.7754 H   0  0  0  0  0  0  0  0  0  0  0  0
    0.9629    1.6493   -0.9044 H   0  0  0  0  0  0  0  0  0  0  0  0
    1.3551   -0.7986   -1.3083 H   0  0  0  0  0  0  0  0  0  0  0  0
   -0.0082   -1.2489   -0.1722 H   0  0  0  0  0  0  0  0  0  0  0  0
    1.1320   -0.2565    1.6518 H   0  0  0  0  0  0  0  0  0  0  0  0
    1.5714   -2.3810    1.5665 H   0  0  0  0  0  0  0  0  0  0  0  0
    3.1701   -1.9438    1.0800 H   0  0  0  0  0  0  0  0  0  0  0  0
    3.4046    2.2117   -0.2484 H   0  0  0  0  0  0  0  0  0  0  0  0
   -2.1310   -1.5447   -3.1386 H   0  0  0  0  0  0  0  0  0  0  0  0
  1  2  1  0
  2  3  1  0
  3  4  2  0
  4  5  1  0
  5  6  1  0
  6  7  1  0
  6  8  1  0
  8  9  2  0
  8 10  1  0
  2 11  1  0
 11 12  2  0
 11 13  1  0
  1 14  1  0
  1 15  1  0
  2 16  1  1
  3 17  1  0
  4 18  1  0
  5 19  1  0
  5 20  1  0
  6 21  1  1
  7 22  1  0
  7 23  1  0
 10 24  1  0
 13 25  1  0
M  END
$$$$

     RDKit          3D

 25 24  0  0  0  0  0  0  0  0999 V2000
   -2.0205   -1.4004   -0.9293 N   0  0  0  0  0  0  0  0  0  0  0  0
   -1.8554    0.0306   -0.7019 C   0  0  2  0  0  0  0  0  0  0  0  0
   -1.3682    0.3176    0.6616 C   0  0  0  0  0  0  0  0  0  0  0  0
   -0.1216    0.0096    0.9694 C   0  0  0  0  0  0  0  0  0  0  0  0
    0.7478   -0.6085   -0.0460 C   0  0  0  0  0  0  0  0  0  0  0  0
    1.9357    0.3426   -0.2414 C   0  0  1  0  0  0  0  0  0  0  0  0
    2.6291    0.4969    1.0010 N   0  0  0  0  0  0  0  0  0  0  0  0
    2.8132   -0.1129   -1.3381 C   0  0  0  0  0  0  0  0  0  0  0  0
    2.3741   -0.3014   -2.4981 O   0  0  0  0  0  0  0  0  0  0  0  0
    4.1607   -0.3475   -1.1147 O   0  0  0  0  0  0  0  0  0  0  0  0
   -3.1826    0.6600   -0.8629 C   0  0  0  0  0  0  0  0  0  0  0  0
   -4.1978   -0.0073   -1.1440 O   0  0  0  0  0  0  0  0  0  0  0  0
   -3.3025    2.0244   -0.6977 O   0  0  0  0  0  0  0  0  0  0  0  0
   -2.4048   -1.8003   -0.0433 H   0  0  0  0  0  0  0  0  0  0  0  0
   -2.7816   -1.5025   -1.6458 H   0  0  0  0  0  0  0  0  0  0  0  0
   -1.1658    0.4760   -1.4649 H   0  0  0  0  0  0  0  0  0  0  0  0
   -2.0467    0.7822    1.4019 H   0  0  0  0  0  0  0  0  0  0  0  0
    0.2542    0.2127    1.9653 H   0  0  0  0  0  0  0  0  0  0  0  0
    1.1797   -1.5398    0.4283 H   0  0  0  0  0  0  0  0  0  0  0  0
    0.2837   -0.8545   -0.9936 H   0  0  0  0  0  0  0  0  0  0  0  0
    1.4863    1.3213   -0.5490 H   0  0  0  0  0  0  0  0  0  0  0  0
    2.4503   -0.2977    1.6701 H   0  0  0  0  0  0  0  0  0  0  0  0
    3.6498    0.6810    0.8982 H   0  0  0  0  0  0  0  0  0  0  0  0
    4.7027   -1.0392   -1.6440 H   0  0  0  0  0  0  0  0  0  0  0  0
   -4.2199    2.4572   -0.5321 H   0  0  0  0  0  0  0  0  0  0  0  0
  1  2  1  0
  2  3  1  0
  3  4  2  0
  4  5  1  0
  5  6  1  0
  6  7  1  0
  6  8  1  0
  8  9  2  0
  8 10  1  0
  2 11  1  0
 11 12  2  0
 11 13  1  0
  1 14  1  0
  1 15  1  0
  2 16  1  6
  3 17  1  0
  4 18  1  0
  5 19  1  0
  5 20  1  0
  6 21  1  6
  7 22  1  0
  7 23  1  0
 10 24  1  0
 13 25  1  0
M  END
$$$$

     RDKit          3D

 25 24  0  0  0  0  0  0  0  0999 V2000
   -2.4359   -0.9422   -1.0088 N   0  0  0  0  0  0  0  0  0  0  0  0
   -1.7951    0.1975   -0.3826 C   0  0  2  0  0  0  0  0  0  0  0  0
   -0.9404   -0.1910    0.7555 C   0  0  0  0  0  0  0  0  0  0  0  0
    0.2667   -0.6912    0.5393 C   0  0  0  0  0  0  0  0  0  0  0  0
    0.8357   -0.8938   -0.8082 C   0  0  0  0  0  0  0  0  0  0  0  0
    2.1051   -0.0629   -0.9035 C   0  0  1  0  0  0  0  0  0  0  0  0
    1.7623    1.3231   -0.6949 N   0  0  0  0  0  0  0  0  0  0  0  0
    3.1122   -0.4966    0.0996 C   0  0  0  0  0  0  0  0  0  0  0  0
    3.5370   -1.6840    0.0763 O   0  0  0  0  0  0  0  0  0  0  0  0
    3.6208    0.3451    1.0774 O   0  0  0  0  0  0  0  0  0  0  0  0
   -2.8641    1.0706    0.1491 C   0  0  0  0  0  0  0  0  0  0  0  0
   -2.6296    2.1496    0.7545 O   0  0  0  0  0  0  0  0  0  0  0  0
   -4.1806    0.6927   -0.0219 O   0  0  0  0  0  0  0  0  0  0  0  0
   -3.3405   -0.7027   -1.4611 H   0  0  0  0  0  0  0  0  0  0  0  0
   -2.4618   -1.7819   -0.4133 H   0  0  0  0  0  0  0  0  0  0  0  0
   -1.2067    0.7905   -1.1244 H   0  0  0  0  0  0  0  0  0  0  0  0
   -1.2626   -0.0836    1.7801 H   0  0  0  0  0  0  0  0  0  0  0  0
    0.8874   -0.9739    1.3855 H   0  0  0  0  0  0  0  0  0  0  0  0
    1.1090   -1.9867   -0.8823 H   0  0  0  0  0  0  0  0  0  0  0  0
    0.1896   -0.6057   -1.6314 H   0  0  0  0  0  0  0  0  0  0  0  0
    2.5743   -0.1951   -1.8983 H   0  0  0  0  0  0  0  0  0  0  0  0
    1.4625    1.5025    0.2688 H   0  0  0  0  0  0  0  0  0  0  0  0
    2.4965    1.9762   -1.0428 H   0  0  0  0  0  0  0  0  0  0  0  0
    4.1270    0.0091    1.8978 H   0  0  0  0  0  0  0  0  0  0  0  0
   -4.9687    1.2342    0.3102 H   0  0  0  0  0  0  0  0  0  0  0  0
  1  2  1  0
  2  3  1  0
  3  4  2  0
  4  5  1  0
  5  6  1  0
  6  7  1  0
  6  8  1  0
  8  9  2  0
  8 10  1  0
  2 11  1  0
 11 12  2  0
 11 13  1  0
  1 14  1  0
  1 15  1  0
  2 16  1  6
  3 17  1  0
  4 18  1  0
  5 19  1  0
  5 20  1  0
  6 21  1  6
  7 22  1  0
  7 23  1  0
 10 24  1  0
 13 25  1  0
M  END
$$$$

     RDKit          3D

 25 24  0  0  0  0  0  0  0  0999 V2000
   -3.0098    1.3024    0.1766 N   0  0  0  0  0  0  0  0  0  0  0  0
   -2.0116    0.2560   -0.1362 C   0  0  2  0  0  0  0  0  0  0  0  0
   -0.9474    0.9146   -0.8999 C   0  0  0  0  0  0  0  0  0  0  0  0
    0.2920    0.5022   -0.8790 C   0  0  0  0  0  0  0  0  0  0  0  0
    0.7484   -0.6455   -0.1031 C   0  0  0  0  0  0  0  0  0  0  0  0
    1.8171   -0.2874    0.9416 C   0  0  1  0  0  0  0  0  0  0  0  0
    2.1765   -1.5363    1.6451 N   0  0  0  0  0  0  0  0  0  0  0  0
    3.0224    0.3069    0.3416 C   0  0  0  0  0  0  0  0  0  0  0  0
    4.1182   -0.2842    0.4324 O   0  0  0  0  0  0  0  0  0  0  0  0
    2.9630    1.5089   -0.3202 O   0  0  0  0  0  0  0  0  0  0  0  0
   -2.7101   -0.8005   -0.8729 C   0  0  0  0  0  0  0  0  0  0  0  0
   -2.0492   -1.8219   -1.2706 O   0  0  0  0  0  0  0  0  0  0  0  0
   -4.0751   -0.7015   -1.1405 O   0  0  0  0  0  0  0  0  0  0  0  0
   -2.5764    2.0361    0.7900 H   0  0  0  0  0  0  0  0  0  0  0  0
   -3.2182    1.7527   -0.7615 H   0  0  0  0  0  0  0  0  0  0  0  0
   -1.6008   -0.1182    0.8443 H   0  0  0  0  0  0  0  0  0  0  0  0
   -1.2129    1.7974   -1.5199 H   0  0  0  0  0  0  0  0  0  0  0  0
    1.0268    1.0420   -1.4780 H   0  0  0  0  0  0  0  0  0  0  0  0
    1.3281   -1.3005   -0.8297 H   0  0  0  0  0  0  0  0  0  0  0  0
   -0.0018   -1.2146    0.4305 H   0  0  0  0  0  0  0  0  0  0  0  0
    1.3715    0.3815    1.7059 H   0  0  0  0  0  0  0  0  0  0  0  0
    2.0230   -2.3394    1.0121 H   0  0  0  0  0  0  0  0  0  0  0  0
    3.2019   -1.4791    1.8364 H   0  0  0  0  0  0  0  0  0  0  0  0
    3.7380    1.9853   -0.7504 H   0  0  0  0  0  0  0  0  0  0  0  0
   -4.4134   -1.2567   -1.9320 H   0  0  0  0  0  0  0  0  0  0  0  0
  1  2  1  0
  2  3  1  0
  3  4  2  0
  4  5  1  0
  5  6  1  0
  6  7  1  0
  6  8  1  0
  8  9  2  0
  8 10  1  0
  2 11  1  0
 11 12  2  0
 11 13  1  0
  1 14  1  0
  1 15  1  0
  2 16  1  1
  3 17  1  0
  4 18  1  0
  5 19  1  0
  5 20  1  0
  6 21  1  1
  7 22  1  0
  7 23  1  0
 10 24  1  0
 13 25  1  0
M  END
$$$$

     RDKit          3D

 25 24  0  0  0  0  0  0  0  0999 V2000
   -2.7771    0.4168   -1.2799 N   0  0  0  0  0  0  0  0  0  0  0  0
   -1.9499    0.4670   -0.0737 C   0  0  2  0  0  0  0  0  0  0  0  0
   -1.4197   -0.8672    0.1641 C   0  0  0  0  0  0  0  0  0  0  0  0
   -0.2135   -1.2493   -0.1449 C   0  0  0  0  0  0  0  0  0  0  0  0
    0.7355   -0.3500   -0.7726 C   0  0  0  0  0  0  0  0  0  0  0  0
    1.9485   -0.2282    0.1608 C   0  0  1  0  0  0  0  0  0  0  0  0
    2.4930   -1.5614    0.3101 N   0  0  0  0  0  0  0  0  0  0  0  0
    2.9694    0.6827   -0.4082 C   0  0  0  0  0  0  0  0  0  0  0  0
    4.1027    0.2434   -0.6788 O   0  0  0  0  0  0  0  0  0  0  0  0
    2.7001    2.0144   -0.6493 O   0  0  0  0  0  0  0  0  0  0  0  0
   -2.8934    0.7775    1.0498 C   0  0  0  0  0  0  0  0  0  0  0  0
   -4.1084    0.9435    0.9076 O   0  0  0  0  0  0  0  0  0  0  0  0
   -2.3384    0.8787    2.3171 O   0  0  0  0  0  0  0  0  0  0  0  0
   -3.2301   -0.5284   -1.3348 H   0  0  0  0  0  0  0  0  0  0  0  0
   -2.2496    0.6130   -2.1365 H   0  0  0  0  0  0  0  0  0  0  0  0
   -1.2335    1.2875   -0.0942 H   0  0  0  0  0  0  0  0  0  0  0  0
   -2.0858   -1.6087    0.6385 H   0  0  0  0  0  0  0  0  0  0  0  0
    0.0897   -2.2664    0.0725 H   0  0  0  0  0  0  0  0  0  0  0  0
    0.3795    0.6026   -1.1229 H   0  0  0  0  0  0  0  0  0  0  0  0
    1.1524   -0.8830   -1.6802 H   0  0  0  0  0  0  0  0  0  0  0  0
    1.5981    0.1726    1.1287 H   0  0  0  0  0  0  0  0  0  0  0  0
    3.5335   -1.5585    0.2511 H   0  0  0  0  0  0  0  0  0  0  0  0
    2.1610   -2.0298    1.1705 H   0  0  0  0  0  0  0  0  0  0  0  0
    3.4253    2.6744   -0.8871 H   0  0  0  0  0  0  0  0  0  0  0  0
   -2.7892    1.3569    3.0923 H   0  0  0  0  0  0  0  0  0  0  0  0
  1  2  1  0
  2  3  1  0
  3  4  2  0
  4  5  1  0
  5  6  1  0
  6  7  1  0
  6  8  1  0
  8  9  2  0
  8 10  1  0
  2 11  1  0
 11 12  2  0
 11 13  1  0
  1 14  1  0
  1 15  1  0
  2 16  1  6
  3 17  1  0
  4 18  1  0
  5 19  1  0
  5 20  1  0
  6 21  1  1
  7 22  1  0
  7 23  1  0
 10 24  1  0
 13 25  1  0
M  END
$$$$

     RDKit          3D

 25 24  0  0  0  0  0  0  0  0999 V2000
    1.5632    0.6284   -1.4814 N   0  0  0  0  0  0  0  0  0  0  0  0
    1.6679    0.0999   -0.1687 C   0  0  2  0  0  0  0  0  0  0  0  0
    0.7707    0.6371    0.8341 C   0  0  0  0  0  0  0  0  0  0  0  0
   -0.3268    0.0182    1.1919 C   0  0  0  0  0  0  0  0  0  0  0  0
   -0.7459   -1.2353    0.6338 C   0  0  0  0  0  0  0  0  0  0  0  0
   -2.1325   -1.0403   -0.0071 C   0  0  1  0  0  0  0  0  0  0  0  0
   -3.0916   -0.6030    0.9764 N   0  0  0  0  0  0  0  0  0  0  0  0
   -2.0713   -0.0960   -1.1415 C   0  0  0  0  0  0  0  0  0  0  0  0
   -1.3243   -0.3718   -2.1101 O   0  0  0  0  0  0  0  0  0  0  0  0
   -2.7943    1.0825   -1.1983 O   0  0  0  0  0  0  0  0  0  0  0  0
    3.0565    0.4050    0.2878 C   0  0  0  0  0  0  0  0  0  0  0  0
    3.4770    0.0677    1.4221 O   0  0  0  0  0  0  0  0  0  0  0  0
    3.9099    1.0787   -0.5592 O   0  0  0  0  0  0  0  0  0  0  0  0
    1.5454    1.6523   -1.5564 H   0  0  0  0  0  0  0  0  0  0  0  0
    2.2067    0.1373   -2.1068 H   0  0  0  0  0  0  0  0  0  0  0  0
    1.6550   -1.0141   -0.2530 H   0  0  0  0  0  0  0  0  0  0  0  0
    0.9794    1.5831    1.3302 H   0  0  0  0  0  0  0  0  0  0  0  0
   -1.0080    0.4462    1.9685 H   0  0  0  0  0  0  0  0  0  0  0  0
   -0.9533   -1.9862    1.4564 H   0  0  0  0  0  0  0  0  0  0  0  0
   -0.1806   -1.7529   -0.1047 H   0  0  0  0  0  0  0  0  0  0  0  0
   -2.4600   -2.0170   -0.3944 H   0  0  0  0  0  0  0  0  0  0  0  0
   -3.0148    0.3795    1.2486 H   0  0  0  0  0  0  0  0  0  0  0  0
   -3.1999   -1.2815    1.7352 H   0  0  0  0  0  0  0  0  0  0  0  0
   -2.3922    1.8657   -1.6935 H   0  0  0  0  0  0  0  0  0  0  0  0
    4.8641    1.3165   -0.3099 H   0  0  0  0  0  0  0  0  0  0  0  0
  1  2  1  0
  2  3  1  0
  3  4  2  0
  4  5  1  0
  5  6  1  0
  6  7  1  0
  6  8  1  0
  8  9  2  0
  8 10  1  0
  2 11  1  0
 11 12  2  0
 11 13  1  0
  1 14  1  0
  1 15  1  0
  2 16  1  6
  3 17  1  0
  4 18  1  0
  5 19  1  0
  5 20  1  0
  6 21  1  6
  7 22  1  0
  7 23  1  0
 10 24  1  0
 13 25  1  0
M  END
$$$$

     RDKit          3D

 25 24  0  0  0  0  0  0  0  0999 V2000
    1.0259    0.3431    1.5524 N   0  0  0  0  0  0  0  0  0  0  0  0
    1.6862    0.7689    0.3581 C   0  0  2  0  0  0  0  0  0  0  0  0
    0.8929    1.4399   -0.6533 C   0  0  0  0  0  0  0  0  0  0  0  0
   -0.1321    0.8928   -1.2843 C   0  0  0  0  0  0  0  0  0  0  0  0
   -0.5241   -0.4786   -0.9685 C   0  0  0  0  0  0  0  0  0  0  0  0
   -1.9831   -0.4412   -0.4770 C   0  0  1  0  0  0  0  0  0  0  0  0
   -2.3224   -1.8180   -0.1761 N   0  0  0  0  0  0  0  0  0  0  0  0
   -2.1476    0.3634    0.7386 C   0  0  0  0  0  0  0  0  0  0  0  0
   -2.5244   -0.1758    1.7966 O   0  0  0  0  0  0  0  0  0  0  0  0
   -1.9047    1.7318    0.7959 O   0  0  0  0  0  0  0  0  0  0  0  0
    2.5390   -0.3432   -0.2009 C   0  0  0  0  0  0  0  0  0  0  0  0
    3.1924   -0.2132   -1.2644 O   0  0  0  0  0  0  0  0  0  0  0  0
    2.6216   -1.5569    0.4615 O   0  0  0  0  0  0  0  0  0  0  0  0
    1.4084   -0.5435    1.9500 H   0  0  0  0  0  0  0  0  0  0  0  0
    1.0697    1.0477    2.3232 H   0  0  0  0  0  0  0  0  0  0  0  0
    2.4716    1.5062    0.7275 H   0  0  0  0  0  0  0  0  0  0  0  0
    1.1181    2.4633   -0.9466 H   0  0  0  0  0  0  0  0  0  0  0  0
   -0.7037    1.4565   -2.0523 H   0  0  0  0  0  0  0  0  0  0  0  0
    0.0300   -0.9528   -0.1642 H   0  0  0  0  0  0  0  0  0  0  0  0
   -0.5572   -1.0650   -1.9079 H   0  0  0  0  0  0  0  0  0  0  0  0
   -2.6434   -0.0741   -1.2917 H   0  0  0  0  0  0  0  0  0  0  0  0
   -1.8728   -2.0701    0.7344 H   0  0  0  0  0  0  0  0  0  0  0  0
   -1.8644   -2.4153   -0.9028 H   0  0  0  0  0  0  0  0  0  0  0  0
   -2.2999    2.3034    1.5336 H   0  0  0  0  0  0  0  0  0  0  0  0
    3.4239   -2.1691    0.3681 H   0  0  0  0  0  0  0  0  0  0  0  0
  1  2  1  0
  2  3  1  0
  3  4  2  0
  4  5  1  0
  5  6  1  0
  6  7  1  0
  6  8  1  0
  8  9  2  0
  8 10  1  0
  2 11  1  0
 11 12  2  0
 11 13  1  0
  1 14  1  0
  1 15  1  0
  2 16  1  1
  3 17  1  0
  4 18  1  0
  5 19  1  0
  5 20  1  0
  6 21  1  6
  7 22  1  0
  7 23  1  0
 10 24  1  0
 13 25  1  0
M  END
$$$$
