
     RDKit          3D

 25 25  0  0  0  0  0  0  0  0999 V2000
    4.5663   -0.2280    0.7125 C   0  0  0  0  0  0  0  0  0  0  0  0
    3.3697   -0.1711   -0.1632 C   0  0  0  0  0  0  0  0  0  0  0  0
    3.5280   -0.1237   -1.4153 O   0  0  0  0  0  0  0  0  0  0  0  0
    2.0754   -0.1711    0.4182 N   0  0  0  0  0  0  0  0  0  0  0  0
    0.9347   -0.1152   -0.4605 C   0  0  0  0  0  0  0  0  0  0  0  0
   -0.3740   -0.1207    0.2676 C   0  0  0  0  0  0  0  0  0  0  0  0
   -1.4717   -0.0578   -0.8041 C   0  0  0  0  0  0  0  0  0  0  0  0
   -2.7847   -0.0593   -0.1776 N   0  0  0  0  0  0  0  0  0  0  0  0
   -3.4667   -1.1558    0.0943 N   0  0  0  0  0  0  0  0  0  0  0  0
   -4.6086   -0.7759    0.6576 N   0  0  0  0  0  0  0  0  0  0  0  0
   -4.6295    0.5529    0.7325 N   0  0  0  0  0  0  0  0  0  0  0  0
   -3.4844    1.0230    0.2090 C   0  0  0  0  0  0  0  0  0  0  0  0
   -3.1508    2.2566    0.1101 N   0  0  0  0  0  0  0  0  0  0  0  0
    4.5026   -1.0341    1.4719 H   0  0  0  0  0  0  0  0  0  0  0  0
    4.7206    0.7696    1.1907 H   0  0  0  0  0  0  0  0  0  0  0  0
    5.4769   -0.4208    0.1094 H   0  0  0  0  0  0  0  0  0  0  0  0
    2.0158   -0.2118    1.4581 H   0  0  0  0  0  0  0  0  0  0  0  0
    0.9394   -0.9655   -1.1708 H   0  0  0  0  0  0  0  0  0  0  0  0
    0.9855    0.8633   -1.0194 H   0  0  0  0  0  0  0  0  0  0  0  0
   -0.4515    0.8104    0.8623 H   0  0  0  0  0  0  0  0  0  0  0  0
   -0.5242   -0.9848    0.9124 H   0  0  0  0  0  0  0  0  0  0  0  0
   -1.3975   -0.9411   -1.4796 H   0  0  0  0  0  0  0  0  0  0  0  0
   -1.3354    0.8562   -1.4176 H   0  0  0  0  0  0  0  0  0  0  0  0
   -3.1956   -2.1367   -0.0830 H   0  0  0  0  0  0  0  0  0  0  0  0
   -2.2405    2.5413   -0.3104 H   0  0  0  0  0  0  0  0  0  0  0  0
  1  2  1  0
  2  3  2  0
  2  4  1  0
  4  5  1  0
  5  6  1  0
  6  7  1  0
  7  8  1  0
  8  9  1  0
  9 10  1  0
 10 11  2  0
 11 12  1  0
 12 13  2  3
 12  8  1  0
  1 14  1  0
  1 15  1  0
  1 16  1  0
  4 17  1  0
  5 18  1  0
  5 19  1  0
  6 20  1  0
  6 21  1  0
  7 22  1  0
  7 23  1  0
  9 24  1  0
 13 25  1  0
M  END
$$$$

     RDKit          3D

 25 25  0  0  0  0  0  0  0  0999 V2000
    4.1498    0.7583    1.0655 C   0  0  0  0  0  0  0  0  0  0  0  0
    2.8654    0.0748    0.7768 C   0  0  0  0  0  0  0  0  0  0  0  0
    2.2334   -0.5119    1.6791 O   0  0  0  0  0  0  0  0  0  0  0  0
    2.3440    0.0860   -0.5445 N   0  0  0  0  0  0  0  0  0  0  0  0
    1.1153   -0.5457   -0.9123 C   0  0  0  0  0  0  0  0  0  0  0  0
   -0.0915   -0.0083   -0.1716 C   0  0  0  0  0  0  0  0  0  0  0  0
   -1.2959   -0.7488   -0.6482 C   0  0  0  0  0  0  0  0  0  0  0  0
   -2.5237   -0.3639   -0.0485 N   0  0  0  0  0  0  0  0  0  0  0  0
   -3.0243   -0.9094    1.0554 N   0  0  0  0  0  0  0  0  0  0  0  0
   -4.1734   -0.3271    1.3448 N   0  0  0  0  0  0  0  0  0  0  0  0
   -4.4320    0.5982    0.4381 N   0  0  0  0  0  0  0  0  0  0  0  0
   -3.4236    0.5866   -0.4268 C   0  0  0  0  0  0  0  0  0  0  0  0
   -3.2228    1.3067   -1.4829 N   0  0  0  0  0  0  0  0  0  0  0  0
    4.6583    0.3129    1.9349 H   0  0  0  0  0  0  0  0  0  0  0  0
    4.0271    1.8591    1.1959 H   0  0  0  0  0  0  0  0  0  0  0  0
    4.8099    0.5608    0.1760 H   0  0  0  0  0  0  0  0  0  0  0  0
    2.9170    0.5978   -1.2793 H   0  0  0  0  0  0  0  0  0  0  0  0
    1.1646   -1.6422   -0.6424 H   0  0  0  0  0  0  0  0  0  0  0  0
    0.9694   -0.5029   -1.9998 H   0  0  0  0  0  0  0  0  0  0  0  0
    0.0512   -0.2030    0.9088 H   0  0  0  0  0  0  0  0  0  0  0  0
   -0.1247    1.0753   -0.3443 H   0  0  0  0  0  0  0  0  0  0  0  0
   -1.3829   -0.5605   -1.7554 H   0  0  0  0  0  0  0  0  0  0  0  0
   -1.0860   -1.8368   -0.5619 H   0  0  0  0  0  0  0  0  0  0  0  0
   -2.5984   -1.6850    1.6330 H   0  0  0  0  0  0  0  0  0  0  0  0
   -3.9262    2.0292   -1.7536 H   0  0  0  0  0  0  0  0  0  0  0  0
  1  2  1  0
  2  3  2  0
  2  4  1  0
  4  5  1  0
  5  6  1  0
  6  7  1  0
  7  8  1  0
  8  9  1  0
  9 10  1  0
 10 11  2  0
 11 12  1  0
 12 13  2  3
 12  8  1  0
  1 14  1  0
  1 15  1  0
  1 16  1  0
  4 17  1  0
  5 18  1  0
  5 19  1  0
  6 20  1  0
  6 21  1  0
  7 22  1  0
  7 23  1  0
  9 24  1  0
 13 25  1  0
M  END
$$$$

     RDKit          3D

 25 25  0  0  0  0  0  0  0  0999 V2000
    3.5016    1.2323   -1.0117 C   0  0  0  0  0  0  0  0  0  0  0  0
    2.6343    0.7074    0.0910 C   0  0  0  0  0  0  0  0  0  0  0  0
    2.8056    1.0207    1.2910 O   0  0  0  0  0  0  0  0  0  0  0  0
    1.5739   -0.1804   -0.2245 N   0  0  0  0  0  0  0  0  0  0  0  0
    0.7279   -0.6940    0.8399 C   0  0  0  0  0  0  0  0  0  0  0  0
   -0.3421   -1.6245    0.2840 C   0  0  0  0  0  0  0  0  0  0  0  0
   -1.2322   -0.9411   -0.6948 C   0  0  0  0  0  0  0  0  0  0  0  0
   -1.9379    0.1810   -0.1432 N   0  0  0  0  0  0  0  0  0  0  0  0
   -1.5010    1.4236   -0.1352 N   0  0  0  0  0  0  0  0  0  0  0  0
   -2.3967    2.1982    0.4477 N   0  0  0  0  0  0  0  0  0  0  0  0
   -3.4289    1.4794    0.8287 N   0  0  0  0  0  0  0  0  0  0  0  0
   -3.1363    0.1991    0.4530 C   0  0  0  0  0  0  0  0  0  0  0  0
   -3.9243   -0.7963    0.6632 N   0  0  0  0  0  0  0  0  0  0  0  0
    4.5154    0.8066   -0.9809 H   0  0  0  0  0  0  0  0  0  0  0  0
    2.9979    1.0512   -1.9798 H   0  0  0  0  0  0  0  0  0  0  0  0
    3.5581    2.3320   -0.8549 H   0  0  0  0  0  0  0  0  0  0  0  0
    1.4050   -0.4626   -1.2261 H   0  0  0  0  0  0  0  0  0  0  0  0
    0.2206    0.1857    1.2833 H   0  0  0  0  0  0  0  0  0  0  0  0
    1.3729   -1.1990    1.5613 H   0  0  0  0  0  0  0  0  0  0  0  0
   -0.8564   -2.1651    1.0866 H   0  0  0  0  0  0  0  0  0  0  0  0
    0.2311   -2.4109   -0.2899 H   0  0  0  0  0  0  0  0  0  0  0  0
   -0.5945   -0.6509   -1.5749 H   0  0  0  0  0  0  0  0  0  0  0  0
   -1.9556   -1.7075   -1.0806 H   0  0  0  0  0  0  0  0  0  0  0  0
   -0.5988    1.7666   -0.5196 H   0  0  0  0  0  0  0  0  0  0  0  0
   -3.6395   -1.7513    0.3501 H   0  0  0  0  0  0  0  0  0  0  0  0
  1  2  1  0
  2  3  2  0
  2  4  1  0
  4  5  1  0
  5  6  1  0
  6  7  1  0
  7  8  1  0
  8  9  1  0
  9 10  1  0
 10 11  2  0
 11 12  1  0
 12 13  2  3
 12  8  1  0
  1 14  1  0
  1 15  1  0
  1 16  1  0
  4 17  1  0
  5 18  1  0
  5 19  1  0
  6 20  1  0
  6 21  1  0
  7 22  1  0
  7 23  1  0
  9 24  1  0
 13 25  1  0
M  END
$$$$

     RDKit          3D

 25 25  0  0  0  0  0  0  0  0999 V2000
   -4.5881    0.3613    0.5604 C   0  0  0  0  0  0  0  0  0  0  0  0
   -3.3998    0.7367   -0.2509 C   0  0  0  0  0  0  0  0  0  0  0  0
   -3.5258    1.5138   -1.2291 O   0  0  0  0  0  0  0  0  0  0  0  0
   -2.1055    0.2450    0.0384 N   0  0  0  0  0  0  0  0  0  0  0  0
   -0.9242    0.5648   -0.6987 C   0  0  0  0  0  0  0  0  0  0  0  0
    0.2664   -0.1266   -0.1210 C   0  0  0  0  0  0  0  0  0  0  0  0
    1.5443    0.1637   -0.8459 C   0  0  0  0  0  0  0  0  0  0  0  0
    2.6262   -0.5544   -0.2040 N   0  0  0  0  0  0  0  0  0  0  0  0
    3.0563   -1.7707   -0.4754 N   0  0  0  0  0  0  0  0  0  0  0  0
    4.0643   -2.1098    0.3093 N   0  0  0  0  0  0  0  0  0  0  0  0
    4.2949   -1.0741    1.1188 N   0  0  0  0  0  0  0  0  0  0  0  0
    3.4068   -0.1149    0.8011 C   0  0  0  0  0  0  0  0  0  0  0  0
    3.2800    1.0511    1.3379 N   0  0  0  0  0  0  0  0  0  0  0  0
   -5.4436    0.0585   -0.0685 H   0  0  0  0  0  0  0  0  0  0  0  0
   -4.3355   -0.5402    1.1889 H   0  0  0  0  0  0  0  0  0  0  0  0
   -4.8306    1.2170    1.2194 H   0  0  0  0  0  0  0  0  0  0  0  0
   -2.0435   -0.4099    0.8746 H   0  0  0  0  0  0  0  0  0  0  0  0
   -1.0754    0.2184   -1.7474 H   0  0  0  0  0  0  0  0  0  0  0  0
   -0.7013    1.6485   -0.7405 H   0  0  0  0  0  0  0  0  0  0  0  0
    0.1550   -1.2289   -0.0698 H   0  0  0  0  0  0  0  0  0  0  0  0
    0.4086    0.2447    0.9362 H   0  0  0  0  0  0  0  0  0  0  0  0
    1.7938    1.2246   -0.9151 H   0  0  0  0  0  0  0  0  0  0  0  0
    1.4834   -0.2091   -1.9094 H   0  0  0  0  0  0  0  0  0  0  0  0
    2.6722   -2.4166   -1.2130 H   0  0  0  0  0  0  0  0  0  0  0  0
    3.9209    1.3073    2.1038 H   0  0  0  0  0  0  0  0  0  0  0  0
  1  2  1  0
  2  3  2  0
  2  4  1  0
  4  5  1  0
  5  6  1  0
  6  7  1  0
  7  8  1  0
  8  9  1  0
  9 10  1  0
 10 11  2  0
 11 12  1  0
 12 13  2  3
 12  8  1  0
  1 14  1  0
  1 15  1  0
  1 16  1  0
  4 17  1  0
  5 18  1  0
  5 19  1  0
  6 20  1  0
  6 21  1  0
  7 22  1  0
  7 23  1  0
  9 24  1  0
 13 25  1  0
M  END
$$$$

     RDKit          3D

 25 25  0  0  0  0  0  0  0  0999 V2000
    3.1926    0.3326    1.5790 C   0  0  0  0  0  0  0  0  0  0  0  0
    2.3931   -0.1161    0.4028 C   0  0  0  0  0  0  0  0  0  0  0  0
    2.4168    0.5212   -0.6872 O   0  0  0  0  0  0  0  0  0  0  0  0
    1.5736   -1.2750    0.4570 N   0  0  0  0  0  0  0  0  0  0  0  0
    0.7851   -1.7392   -0.6623 C   0  0  0  0  0  0  0  0  0  0  0  0
   -0.2322   -0.7300   -1.1272 C   0  0  0  0  0  0  0  0  0  0  0  0
   -1.2083   -0.3925   -0.0010 C   0  0  0  0  0  0  0  0  0  0  0  0
   -2.1699    0.5793   -0.4847 N   0  0  0  0  0  0  0  0  0  0  0  0
   -3.3229    0.3011   -1.0604 N   0  0  0  0  0  0  0  0  0  0  0  0
   -3.8984    1.4557   -1.3515 N   0  0  0  0  0  0  0  0  0  0  0  0
   -3.1338    2.4558   -0.9722 N   0  0  0  0  0  0  0  0  0  0  0  0
   -2.0288    1.9171   -0.4181 C   0  0  0  0  0  0  0  0  0  0  0  0
   -1.0488    2.6101    0.0699 N   0  0  0  0  0  0  0  0  0  0  0  0
    3.3519    1.4501    1.5384 H   0  0  0  0  0  0  0  0  0  0  0  0
    2.7574    0.0060    2.5306 H   0  0  0  0  0  0  0  0  0  0  0  0
    4.1986   -0.1198    1.4843 H   0  0  0  0  0  0  0  0  0  0  0  0
    1.5330   -1.8237    1.3442 H   0  0  0  0  0  0  0  0  0  0  0  0
    0.3019   -2.7068   -0.4525 H   0  0  0  0  0  0  0  0  0  0  0  0
    1.4929   -1.9243   -1.5175 H   0  0  0  0  0  0  0  0  0  0  0  0
   -0.7880   -1.1725   -1.9786 H   0  0  0  0  0  0  0  0  0  0  0  0
    0.2648    0.1770   -1.5123 H   0  0  0  0  0  0  0  0  0  0  0  0
   -0.6810   -0.0579    0.8905 H   0  0  0  0  0  0  0  0  0  0  0  0
   -1.7710   -1.3133    0.2560 H   0  0  0  0  0  0  0  0  0  0  0  0
   -3.7655   -0.6190   -1.2790 H   0  0  0  0  0  0  0  0  0  0  0  0
   -0.2132    2.1840    0.4890 H   0  0  0  0  0  0  0  0  0  0  0  0
  1  2  1  0
  2  3  2  0
  2  4  1  0
  4  5  1  0
  5  6  1  0
  6  7  1  0
  7  8  1  0
  8  9  1  0
  9 10  1  0
 10 11  2  0
 11 12  1  0
 12 13  2  3
 12  8  1  0
  1 14  1  0
  1 15  1  0
  1 16  1  0
  4 17  1  0
  5 18  1  0
  5 19  1  0
  6 20  1  0
  6 21  1  0
  7 22  1  0
  7 23  1  0
  9 24  1  0
 13 25  1  0
M  END
$$$$

     RDKit          3D

 25 25  0  0  0  0  0  0  0  0999 V2000
    4.0538    0.0455    0.0908 C   0  0  0  0  0  0  0  0  0  0  0  0
    2.5675   -0.0519   -0.0345 C   0  0  0  0  0  0  0  0  0  0  0  0
    2.0826   -1.0349   -0.6433 O   0  0  0  0  0  0  0  0  0  0  0  0
    1.6944    0.9131    0.5021 N   0  0  0  0  0  0  0  0  0  0  0  0
    0.2604    0.8119    0.3841 C   0  0  0  0  0  0  0  0  0  0  0  0
   -0.2322   -0.4208    1.0658 C   0  0  0  0  0  0  0  0  0  0  0  0
   -1.7259   -0.5143    0.9842 C   0  0  0  0  0  0  0  0  0  0  0  0
   -2.1577   -0.5381   -0.3848 N   0  0  0  0  0  0  0  0  0  0  0  0
   -2.2294   -1.6611   -1.1220 N   0  0  0  0  0  0  0  0  0  0  0  0
   -2.6384   -1.3205   -2.3103 N   0  0  0  0  0  0  0  0  0  0  0  0
   -2.8324   -0.0226   -2.3645 N   0  0  0  0  0  0  0  0  0  0  0  0
   -2.5375    0.4740   -1.1745 C   0  0  0  0  0  0  0  0  0  0  0  0
   -2.6188    1.6969   -0.8432 N   0  0  0  0  0  0  0  0  0  0  0  0
    4.3315    0.9443    0.6432 H   0  0  0  0  0  0  0  0  0  0  0  0
    4.4560    0.1830   -0.9527 H   0  0  0  0  0  0  0  0  0  0  0  0
    4.4445   -0.8476    0.5768 H   0  0  0  0  0  0  0  0  0  0  0  0
    2.1251    1.7345    1.0067 H   0  0  0  0  0  0  0  0  0  0  0  0
   -0.1794    1.7422    0.7941 H   0  0  0  0  0  0  0  0  0  0  0  0
   -0.0477    0.8116   -0.6972 H   0  0  0  0  0  0  0  0  0  0  0  0
    0.1968   -1.3073    0.5606 H   0  0  0  0  0  0  0  0  0  0  0  0
    0.1283   -0.4834    2.1276 H   0  0  0  0  0  0  0  0  0  0  0  0
   -2.1233    0.4235    1.4690 H   0  0  0  0  0  0  0  0  0  0  0  0
   -2.0931   -1.4092    1.5588 H   0  0  0  0  0  0  0  0  0  0  0  0
   -2.0091   -2.6370   -0.8365 H   0  0  0  0  0  0  0  0  0  0  0  0
   -2.9160    2.4679   -1.4717 H   0  0  0  0  0  0  0  0  0  0  0  0
  1  2  1  0
  2  3  2  0
  2  4  1  0
  4  5  1  0
  5  6  1  0
  6  7  1  0
  7  8  1  0
  8  9  1  0
  9 10  1  0
 10 11  2  0
 11 12  1  0
 12 13  2  3
 12  8  1  0
  1 14  1  0
  1 15  1  0
  1 16  1  0
  4 17  1  0
  5 18  1  0
  5 19  1  0
  6 20  1  0
  6 21  1  0
  7 22  1  0
  7 23  1  0
  9 24  1  0
 13 25  1  0
M  END
$$$$

     RDKit          3D

 25 25  0  0  0  0  0  0  0  0999 V2000
    4.2347   -0.0148    0.4813 C   0  0  0  0  0  0  0  0  0  0  0  0
    3.1624    0.1130   -0.5359 C   0  0  0  0  0  0  0  0  0  0  0  0
    3.4237    0.0780   -1.7839 O   0  0  0  0  0  0  0  0  0  0  0  0
    1.7994    0.2797   -0.1677 N   0  0  0  0  0  0  0  0  0  0  0  0
    0.7568    0.4039   -1.1825 C   0  0  0  0  0  0  0  0  0  0  0  0
   -0.5965    0.5700   -0.5871 C   0  0  0  0  0  0  0  0  0  0  0  0
   -1.0239   -0.5677    0.2865 C   0  0  0  0  0  0  0  0  0  0  0  0
   -2.3680   -0.2407    0.7846 N   0  0  0  0  0  0  0  0  0  0  0  0
   -2.6287    0.4203    1.8962 N   0  0  0  0  0  0  0  0  0  0  0  0
   -3.9436    0.5038    1.9821 N   0  0  0  0  0  0  0  0  0  0  0  0
   -4.5019   -0.0915    0.9472 N   0  0  0  0  0  0  0  0  0  0  0  0
   -3.5072   -0.5776    0.1640 C   0  0  0  0  0  0  0  0  0  0  0  0
   -3.6772   -1.2333   -0.9571 N   0  0  0  0  0  0  0  0  0  0  0  0
    4.5608   -1.0640    0.6264 H   0  0  0  0  0  0  0  0  0  0  0  0
    5.1395    0.5142    0.0652 H   0  0  0  0  0  0  0  0  0  0  0  0
    3.9567    0.5060    1.3997 H   0  0  0  0  0  0  0  0  0  0  0  0
    1.5795    0.3091    0.8636 H   0  0  0  0  0  0  0  0  0  0  0  0
    0.7914   -0.4709   -1.8422 H   0  0  0  0  0  0  0  0  0  0  0  0
    0.9745    1.2959   -1.8023 H   0  0  0  0  0  0  0  0  0  0  0  0
   -1.3270    0.6526   -1.4139 H   0  0  0  0  0  0  0  0  0  0  0  0
   -0.6831    1.5005    0.0024 H   0  0  0  0  0  0  0  0  0  0  0  0
   -0.3628   -0.6162    1.1596 H   0  0  0  0  0  0  0  0  0  0  0  0
   -1.0508   -1.5427   -0.2223 H   0  0  0  0  0  0  0  0  0  0  0  0
   -1.9121    0.8053    2.5807 H   0  0  0  0  0  0  0  0  0  0  0  0
   -2.7965   -1.5329   -1.4286 H   0  0  0  0  0  0  0  0  0  0  0  0
  1  2  1  0
  2  3  2  0
  2  4  1  0
  4  5  1  0
  5  6  1  0
  6  7  1  0
  7  8  1  0
  8  9  1  0
  9 10  1  0
 10 11  2  0
 11 12  1  0
 12 13  2  3
 12  8  1  0
  1 14  1  0
  1 15  1  0
  1 16  1  0
  4 17  1  0
  5 18  1  0
  5 19  1  0
  6 20  1  0
  6 21  1  0
  7 22  1  0
  7 23  1  0
  9 24  1  0
 13 25  1  0
M  END
$$$$

     RDKit          3D

 25 25  0  0  0  0  0  0  0  0999 V2000
    3.7127    0.2914    1.1438 C   0  0  0  0  0  0  0  0  0  0  0  0
    2.6262    0.6708    0.2006 C   0  0  0  0  0  0  0  0  0  0  0  0
    2.6803    1.8234   -0.3128 O   0  0  0  0  0  0  0  0  0  0  0  0
    1.5786   -0.2458   -0.0954 N   0  0  0  0  0  0  0  0  0  0  0  0
    0.5597    0.2040   -1.0248 C   0  0  0  0  0  0  0  0  0  0  0  0
   -0.4915   -0.8627   -1.2515 C   0  0  0  0  0  0  0  0  0  0  0  0
   -1.1600   -1.2082    0.0423 C   0  0  0  0  0  0  0  0  0  0  0  0
   -1.8165   -0.0918    0.6600 N   0  0  0  0  0  0  0  0  0  0  0  0
   -1.2811    0.7546    1.5233 N   0  0  0  0  0  0  0  0  0  0  0  0
   -2.1842    1.6530    1.8772 N   0  0  0  0  0  0  0  0  0  0  0  0
   -3.3140    1.3911    1.2415 N   0  0  0  0  0  0  0  0  0  0  0  0
   -3.1002    0.2961    0.4711 C   0  0  0  0  0  0  0  0  0  0  0  0
   -3.9419   -0.3059   -0.3190 N   0  0  0  0  0  0  0  0  0  0  0  0
    3.8939    1.1001    1.8772 H   0  0  0  0  0  0  0  0  0  0  0  0
    3.3712   -0.5864    1.7218 H   0  0  0  0  0  0  0  0  0  0  0  0
    4.6672    0.1183    0.6103 H   0  0  0  0  0  0  0  0  0  0  0  0
    1.5847   -1.1815    0.3565 H   0  0  0  0  0  0  0  0  0  0  0  0
    0.1272    1.1347   -0.6024 H   0  0  0  0  0  0  0  0  0  0  0  0
    1.0680    0.3622   -1.9954 H   0  0  0  0  0  0  0  0  0  0  0  0
    0.0838   -1.7826   -1.5672 H   0  0  0  0  0  0  0  0  0  0  0  0
   -1.1606   -0.6310   -2.0771 H   0  0  0  0  0  0  0  0  0  0  0  0
   -0.3953   -1.6798    0.7037 H   0  0  0  0  0  0  0  0  0  0  0  0
   -1.9088   -2.0262   -0.1525 H   0  0  0  0  0  0  0  0  0  0  0  0
   -0.2986    0.7059    1.8610 H   0  0  0  0  0  0  0  0  0  0  0  0
   -4.9009    0.0964   -0.3725 H   0  0  0  0  0  0  0  0  0  0  0  0
  1  2  1  0
  2  3  2  0
  2  4  1  0
  4  5  1  0
  5  6  1  0
  6  7  1  0
  7  8  1  0
  8  9  1  0
  9 10  1  0
 10 11  2  0
 11 12  1  0
 12 13  2  3
 12  8  1  0
  1 14  1  0
  1 15  1  0
  1 16  1  0
  4 17  1  0
  5 18  1  0
  5 19  1  0
  6 20  1  0
  6 21  1  0
  7 22  1  0
  7 23  1  0
  9 24  1  0
 13 25  1  0
M  END
$$$$
