
     RDKit          3D

 32 31  0  0  0  0  0  0  0  0999 V2000
   -1.4915   -0.7186   -1.7812 C   0  0  0  0  0  0  0  0  0  0  0  0
   -0.8079   -0.9264   -0.4233 C   0  0  2  0  0  0  0  0  0  0  0  0
   -1.9143   -1.0659    0.5589 C   0  0  0  0  0  0  0  0  0  0  0  0
   -3.0962   -0.7090    0.2595 N   0  0  0  0  0  0  0  0  0  0  0  0
   -1.6473   -1.5602    1.8549 N   0  0  0  0  0  0  0  0  0  0  0  0
    0.0203    0.1620   -0.1488 N   0  0  0  0  0  0  0  0  0  0  0  0
   -0.3596    1.4099    0.2704 C   0  0  0  0  0  0  0  0  0  0  0  0
   -1.1429    2.3554   -0.5592 C   0  0  0  0  0  0  0  0  0  0  0  0
   -1.2790    3.5413    0.2810 O   0  0  0  0  0  0  0  0  0  0  0  0
    1.3039    0.0918   -0.8272 C   0  0  0  0  0  0  0  0  0  0  0  0
    2.3002   -0.8532   -0.2856 C   0  0  0  0  0  0  0  0  0  0  0  0
    2.7319   -0.5112    1.1264 C   0  0  0  0  0  0  0  0  0  0  0  0
    3.6652   -1.4439    1.5430 O   0  0  0  0  0  0  0  0  0  0  0  0
   -1.8464    0.2704   -1.9271 H   0  0  0  0  0  0  0  0  0  0  0  0
   -2.3089   -1.4852   -1.8430 H   0  0  0  0  0  0  0  0  0  0  0  0
   -0.7571   -0.9798   -2.5947 H   0  0  0  0  0  0  0  0  0  0  0  0
   -0.2107   -1.8680   -0.5450 H   0  0  0  0  0  0  0  0  0  0  0  0
   -3.3160   -0.3076   -0.6787 H   0  0  0  0  0  0  0  0  0  0  0  0
   -2.4116   -1.7334    2.5589 H   0  0  0  0  0  0  0  0  0  0  0  0
   -0.6815   -1.7802    2.1934 H   0  0  0  0  0  0  0  0  0  0  0  0
    0.5924    2.0017    0.5402 H   0  0  0  0  0  0  0  0  0  0  0  0
   -0.8667    1.4013    1.3131 H   0  0  0  0  0  0  0  0  0  0  0  0
   -2.1839    2.0061   -0.7249 H   0  0  0  0  0  0  0  0  0  0  0  0
   -0.6071    2.7186   -1.4456 H   0  0  0  0  0  0  0  0  0  0  0  0
   -1.2829    3.1830    1.1919 H   0  0  0  0  0  0  0  0  0  0  0  0
    1.7044    1.1052   -0.8817 H   0  0  0  0  0  0  0  0  0  0  0  0
    1.0578   -0.2397   -1.8848 H   0  0  0  0  0  0  0  0  0  0  0  0
    1.9905   -1.9146   -0.2761 H   0  0  0  0  0  0  0  0  0  0  0  0
    3.2153   -0.7657   -0.9340 H   0  0  0  0  0  0  0  0  0  0  0  0
    1.8726   -0.5666    1.8232 H   0  0  0  0  0  0  0  0  0  0  0  0
    3.2175    0.4886    1.1614 H   0  0  0  0  0  0  0  0  0  0  0  0
    4.5397   -1.3059    1.0846 H   0  0  0  0  0  0  0  0  0  0  0  0
  1  2  1  0
  2  3  1  0
  3  4  2  3
  3  5  1  0
  2  6  1  0
  6  7  1  0
  7  8  1  0
  8  9  1  0
  6 10  1  0
 10 11  1  0
 11 12  1  0
 12 13  1  0
  1 14  1  0
  1 15  1  0
  1 16  1  0
  2 17  1  6
  4 18  1  0
  5 19  1  0
  5 20  1  0
  7 21  1  0
  7 22  1  0
  8 23  1  0
  8 24  1  0
  9 25  1  0
 10 26  1  0
 10 27  1  0
 11 28  1  0
 11 29  1  0
 12 30  1  0
 12 31  1  0
 13 32  1  0
M  END
$$$$

     RDKit          3D

 32 31  0  0  0  0  0  0  0  0999 V2000
   -1.4100   -0.5021    2.1692 C   0  0  0  0  0  0  0  0  0  0  0  0
   -1.5575   -0.6599    0.6911 C   0  0  2  0  0  0  0  0  0  0  0  0
   -1.4058   -2.0145    0.1592 C   0  0  0  0  0  0  0  0  0  0  0  0
   -1.1701   -3.0282    0.8638 N   0  0  0  0  0  0  0  0  0  0  0  0
   -1.5245   -2.2429   -1.2655 N   0  0  0  0  0  0  0  0  0  0  0  0
   -0.6201    0.2684   -0.0359 N   0  0  0  0  0  0  0  0  0  0  0  0
   -1.0417    1.5391    0.3177 C   0  0  0  0  0  0  0  0  0  0  0  0
   -0.3759    2.7667   -0.1404 C   0  0  0  0  0  0  0  0  0  0  0  0
   -0.3375    2.9125   -1.5282 O   0  0  0  0  0  0  0  0  0  0  0  0
    0.6819   -0.2103    0.0904 C   0  0  0  0  0  0  0  0  0  0  0  0
    1.7590    0.4480   -0.7192 C   0  0  0  0  0  0  0  0  0  0  0  0
    3.0983   -0.2568   -0.4627 C   0  0  0  0  0  0  0  0  0  0  0  0
    2.9409   -1.5808   -0.8453 O   0  0  0  0  0  0  0  0  0  0  0  0
   -1.4234   -1.4413    2.7517 H   0  0  0  0  0  0  0  0  0  0  0  0
   -0.4679    0.0142    2.4892 H   0  0  0  0  0  0  0  0  0  0  0  0
   -2.2395    0.1238    2.5889 H   0  0  0  0  0  0  0  0  0  0  0  0
   -2.5748   -0.2665    0.3871 H   0  0  0  0  0  0  0  0  0  0  0  0
   -1.0472   -3.1032    1.8591 H   0  0  0  0  0  0  0  0  0  0  0  0
   -1.8815   -3.1326   -1.6568 H   0  0  0  0  0  0  0  0  0  0  0  0
   -1.2487   -1.5022   -1.9609 H   0  0  0  0  0  0  0  0  0  0  0  0
   -1.2025    1.5620    1.4402 H   0  0  0  0  0  0  0  0  0  0  0  0
   -2.1289    1.6318   -0.0453 H   0  0  0  0  0  0  0  0  0  0  0  0
   -1.1176    3.6157    0.1574 H   0  0  0  0  0  0  0  0  0  0  0  0
    0.5358    3.0964    0.3362 H   0  0  0  0  0  0  0  0  0  0  0  0
   -0.3499    3.8834   -1.7735 H   0  0  0  0  0  0  0  0  0  0  0  0
    0.6881   -1.2953   -0.2585 H   0  0  0  0  0  0  0  0  0  0  0  0
    1.0514   -0.3060    1.1445 H   0  0  0  0  0  0  0  0  0  0  0  0
    1.8841    1.5005   -0.4801 H   0  0  0  0  0  0  0  0  0  0  0  0
    1.5611    0.3586   -1.8091 H   0  0  0  0  0  0  0  0  0  0  0  0
    3.8899    0.2132   -1.0627 H   0  0  0  0  0  0  0  0  0  0  0  0
    3.3438   -0.2296    0.6131 H   0  0  0  0  0  0  0  0  0  0  0  0
    3.6908   -2.1621   -0.6337 H   0  0  0  0  0  0  0  0  0  0  0  0
  1  2  1  0
  2  3  1  0
  3  4  2  3
  3  5  1  0
  2  6  1  0
  6  7  1  0
  7  8  1  0
  8  9  1  0
  6 10  1  0
 10 11  1  0
 11 12  1  0
 12 13  1  0
  1 14  1  0
  1 15  1  0
  1 16  1  0
  2 17  1  6
  4 18  1  0
  5 19  1  0
  5 20  1  0
  7 21  1  0
  7 22  1  0
  8 23  1  0
  8 24  1  0
  9 25  1  0
 10 26  1  0
 10 27  1  0
 11 28  1  0
 11 29  1  0
 12 30  1  0
 12 31  1  0
 13 32  1  0
M  END
$$$$

     RDKit          3D

 32 31  0  0  0  0  0  0  0  0999 V2000
   -2.6578    0.5218    0.0498 C   0  0  0  0  0  0  0  0  0  0  0  0
   -1.2727    0.2273   -0.5400 C   0  0  2  0  0  0  0  0  0  0  0  0
   -1.3477   -1.1734   -1.0083 C   0  0  0  0  0  0  0  0  0  0  0  0
   -1.3266   -1.4353   -2.2555 N   0  0  0  0  0  0  0  0  0  0  0  0
   -1.4624   -2.2579   -0.1015 N   0  0  0  0  0  0  0  0  0  0  0  0
   -0.2401    0.4936    0.3741 N   0  0  0  0  0  0  0  0  0  0  0  0
   -0.0918    1.8212    0.8318 C   0  0  0  0  0  0  0  0  0  0  0  0
    0.3634    2.7806   -0.2362 C   0  0  0  0  0  0  0  0  0  0  0  0
    0.4910    4.0850    0.2806 O   0  0  0  0  0  0  0  0  0  0  0  0
    0.7562   -0.4199    0.6829 C   0  0  0  0  0  0  0  0  0  0  0  0
    1.6896   -0.6235   -0.4814 C   0  0  0  0  0  0  0  0  0  0  0  0
    2.7821   -1.6254   -0.1540 C   0  0  0  0  0  0  0  0  0  0  0  0
    2.2440   -2.8749    0.1743 O   0  0  0  0  0  0  0  0  0  0  0  0
   -3.4070    0.2499   -0.7292 H   0  0  0  0  0  0  0  0  0  0  0  0
   -2.7972    1.5657    0.3042 H   0  0  0  0  0  0  0  0  0  0  0  0
   -2.7990   -0.1853    0.8897 H   0  0  0  0  0  0  0  0  0  0  0  0
   -1.1739    0.8790   -1.4246 H   0  0  0  0  0  0  0  0  0  0  0  0
   -1.3798   -2.4198   -2.5751 H   0  0  0  0  0  0  0  0  0  0  0  0
   -2.2505   -2.2124    0.5824 H   0  0  0  0  0  0  0  0  0  0  0  0
   -0.8422   -3.0798   -0.0576 H   0  0  0  0  0  0  0  0  0  0  0  0
   -0.9668    2.2145    1.3991 H   0  0  0  0  0  0  0  0  0  0  0  0
    0.7412    1.8102    1.5997 H   0  0  0  0  0  0  0  0  0  0  0  0
    1.3717    2.5370   -0.6250 H   0  0  0  0  0  0  0  0  0  0  0  0
   -0.3149    2.7575   -1.1136 H   0  0  0  0  0  0  0  0  0  0  0  0
   -0.2113    4.6214   -0.1562 H   0  0  0  0  0  0  0  0  0  0  0  0
    1.4007    0.0487    1.4894 H   0  0  0  0  0  0  0  0  0  0  0  0
    0.4383   -1.3776    1.1406 H   0  0  0  0  0  0  0  0  0  0  0  0
    2.2537    0.3252   -0.7197 H   0  0  0  0  0  0  0  0  0  0  0  0
    1.2191   -0.9445   -1.3974 H   0  0  0  0  0  0  0  0  0  0  0  0
    3.3763   -1.2179    0.6922 H   0  0  0  0  0  0  0  0  0  0  0  0
    3.4821   -1.7560   -0.9973 H   0  0  0  0  0  0  0  0  0  0  0  0
    1.9323   -3.3350   -0.6298 H   0  0  0  0  0  0  0  0  0  0  0  0
  1  2  1  0
  2  3  1  0
  3  4  2  3
  3  5  1  0
  2  6  1  0
  6  7  1  0
  7  8  1  0
  8  9  1  0
  6 10  1  0
 10 11  1  0
 11 12  1  0
 12 13  1  0
  1 14  1  0
  1 15  1  0
  1 16  1  0
  2 17  1  6
  4 18  1  0
  5 19  1  0
  5 20  1  0
  7 21  1  0
  7 22  1  0
  8 23  1  0
  8 24  1  0
  9 25  1  0
 10 26  1  0
 10 27  1  0
 11 28  1  0
 11 29  1  0
 12 30  1  0
 12 31  1  0
 13 32  1  0
M  END
$$$$

     RDKit          3D

 32 31  0  0  0  0  0  0  0  0999 V2000
   -1.6461   -0.5878   -2.2855 C   0  0  0  0  0  0  0  0  0  0  0  0
   -0.7425   -0.8148   -1.0852 C   0  0  2  0  0  0  0  0  0  0  0  0
   -1.6045   -1.5071   -0.0831 C   0  0  0  0  0  0  0  0  0  0  0  0
   -1.3024   -2.7031    0.2664 N   0  0  0  0  0  0  0  0  0  0  0  0
   -2.7512   -0.9228    0.4982 N   0  0  0  0  0  0  0  0  0  0  0  0
   -0.1805    0.3398   -0.5516 N   0  0  0  0  0  0  0  0  0  0  0  0
   -0.9324    1.3501    0.0224 C   0  0  0  0  0  0  0  0  0  0  0  0
   -0.1082    2.5338    0.4745 C   0  0  0  0  0  0  0  0  0  0  0  0
    0.5884    3.1450   -0.5677 O   0  0  0  0  0  0  0  0  0  0  0  0
    1.1763    0.2737   -0.1678 C   0  0  0  0  0  0  0  0  0  0  0  0
    1.4384   -0.6230    1.0501 C   0  0  0  0  0  0  0  0  0  0  0  0
    2.9544   -0.5360    1.2969 C   0  0  0  0  0  0  0  0  0  0  0  0
    3.6306   -0.9892    0.1849 O   0  0  0  0  0  0  0  0  0  0  0  0
   -1.1584   -0.0680   -3.1077 H   0  0  0  0  0  0  0  0  0  0  0  0
   -2.5762   -0.1096   -1.9209 H   0  0  0  0  0  0  0  0  0  0  0  0
   -1.9436   -1.5953   -2.6486 H   0  0  0  0  0  0  0  0  0  0  0  0
    0.0296   -1.5335   -1.4120 H   0  0  0  0  0  0  0  0  0  0  0  0
   -1.8239   -3.2706    0.9445 H   0  0  0  0  0  0  0  0  0  0  0  0
   -2.8537   -0.8869    1.5270 H   0  0  0  0  0  0  0  0  0  0  0  0
   -3.5006   -0.5249   -0.0945 H   0  0  0  0  0  0  0  0  0  0  0  0
   -1.6478    1.7918   -0.7446 H   0  0  0  0  0  0  0  0  0  0  0  0
   -1.5398    1.0651    0.9160 H   0  0  0  0  0  0  0  0  0  0  0  0
   -0.8035    3.3461    0.8565 H   0  0  0  0  0  0  0  0  0  0  0  0
    0.5834    2.2972    1.3142 H   0  0  0  0  0  0  0  0  0  0  0  0
    0.9376    4.0007   -0.2480 H   0  0  0  0  0  0  0  0  0  0  0  0
    1.6926    1.2352    0.0156 H   0  0  0  0  0  0  0  0  0  0  0  0
    1.7871   -0.2440   -0.9868 H   0  0  0  0  0  0  0  0  0  0  0  0
    0.8754   -0.2486    1.9201 H   0  0  0  0  0  0  0  0  0  0  0  0
    1.1840   -1.6724    0.7935 H   0  0  0  0  0  0  0  0  0  0  0  0
    3.2429    0.5290    1.4592 H   0  0  0  0  0  0  0  0  0  0  0  0
    3.2574   -1.1057    2.1725 H   0  0  0  0  0  0  0  0  0  0  0  0
    3.7375   -1.9639    0.1914 H   0  0  0  0  0  0  0  0  0  0  0  0
  1  2  1  0
  2  3  1  0
  3  4  2  3
  3  5  1  0
  2  6  1  0
  6  7  1  0
  7  8  1  0
  8  9  1  0
  6 10  1  0
 10 11  1  0
 11 12  1  0
 12 13  1  0
  1 14  1  0
  1 15  1  0
  1 16  1  0
  2 17  1  6
  4 18  1  0
  5 19  1  0
  5 20  1  0
  7 21  1  0
  7 22  1  0
  8 23  1  0
  8 24  1  0
  9 25  1  0
 10 26  1  0
 10 27  1  0
 11 28  1  0
 11 29  1  0
 12 30  1  0
 12 31  1  0
 13 32  1  0
M  END
$$$$

     RDKit          3D

 32 31  0  0  0  0  0  0  0  0999 V2000
   -1.5367    0.5127    1.7164 C   0  0  0  0  0  0  0  0  0  0  0  0
   -1.4730    0.1681    0.2489 C   0  0  2  0  0  0  0  0  0  0  0  0
   -2.2900   -0.9476   -0.1945 C   0  0  0  0  0  0  0  0  0  0  0  0
   -2.9557   -1.7077    0.5718 N   0  0  0  0  0  0  0  0  0  0  0  0
   -2.3580   -1.2302   -1.6089 N   0  0  0  0  0  0  0  0  0  0  0  0
   -0.0680    0.0993   -0.1118 N   0  0  0  0  0  0  0  0  0  0  0  0
    0.2922    1.1037   -0.9980 C   0  0  0  0  0  0  0  0  0  0  0  0
    0.2363    2.4787   -0.3892 C   0  0  0  0  0  0  0  0  0  0  0  0
    1.0625    2.6851    0.6972 O   0  0  0  0  0  0  0  0  0  0  0  0
    0.3606   -1.2124   -0.1551 C   0  0  0  0  0  0  0  0  0  0  0  0
    1.7653   -1.5659   -0.4361 C   0  0  0  0  0  0  0  0  0  0  0  0
    2.8045   -1.0710    0.5151 C   0  0  0  0  0  0  0  0  0  0  0  0
    2.8853    0.3075    0.6176 O   0  0  0  0  0  0  0  0  0  0  0  0
   -0.6379    1.0830    2.0460 H   0  0  0  0  0  0  0  0  0  0  0  0
   -2.4874    1.0037    1.9879 H   0  0  0  0  0  0  0  0  0  0  0  0
   -1.4467   -0.4751    2.2742 H   0  0  0  0  0  0  0  0  0  0  0  0
   -1.9165    1.1064   -0.2935 H   0  0  0  0  0  0  0  0  0  0  0  0
   -2.9540   -1.5753    1.5916 H   0  0  0  0  0  0  0  0  0  0  0  0
   -2.0586   -0.5227   -2.3048 H   0  0  0  0  0  0  0  0  0  0  0  0
   -2.7050   -2.1395   -1.9726 H   0  0  0  0  0  0  0  0  0  0  0  0
    1.2943    0.9715   -1.4632 H   0  0  0  0  0  0  0  0  0  0  0  0
   -0.3831    1.1764   -1.9103 H   0  0  0  0  0  0  0  0  0  0  0  0
   -0.7966    2.7400   -0.0305 H   0  0  0  0  0  0  0  0  0  0  0  0
    0.4414    3.2746   -1.1554 H   0  0  0  0  0  0  0  0  0  0  0  0
    1.1334    3.6656    0.8046 H   0  0  0  0  0  0  0  0  0  0  0  0
    0.1437   -1.6601    0.8884 H   0  0  0  0  0  0  0  0  0  0  0  0
   -0.2739   -1.8967   -0.7968 H   0  0  0  0  0  0  0  0  0  0  0  0
    1.8165   -2.7018   -0.3643 H   0  0  0  0  0  0  0  0  0  0  0  0
    2.0704   -1.3700   -1.4850 H   0  0  0  0  0  0  0  0  0  0  0  0
    3.8391   -1.4280    0.2241 H   0  0  0  0  0  0  0  0  0  0  0  0
    2.6515   -1.5319    1.5356 H   0  0  0  0  0  0  0  0  0  0  0  0
    3.5442    0.6595   -0.0494 H   0  0  0  0  0  0  0  0  0  0  0  0
  1  2  1  0
  2  3  1  0
  3  4  2  3
  3  5  1  0
  2  6  1  0
  6  7  1  0
  7  8  1  0
  8  9  1  0
  6 10  1  0
 10 11  1  0
 11 12  1  0
 12 13  1  0
  1 14  1  0
  1 15  1  0
  1 16  1  0
  2 17  1  6
  4 18  1  0
  5 19  1  0
  5 20  1  0
  7 21  1  0
  7 22  1  0
  8 23  1  0
  8 24  1  0
  9 25  1  0
 10 26  1  0
 10 27  1  0
 11 28  1  0
 11 29  1  0
 12 30  1  0
 12 31  1  0
 13 32  1  0
M  END
$$$$

     RDKit          3D

 32 31  0  0  0  0  0  0  0  0999 V2000
   -1.2795   -0.9295   -1.8700 C   0  0  0  0  0  0  0  0  0  0  0  0
   -0.9621   -0.9160   -0.4075 C   0  0  2  0  0  0  0  0  0  0  0  0
   -2.1047   -1.3060    0.4255 C   0  0  0  0  0  0  0  0  0  0  0  0
   -2.0173   -2.1058    1.4605 N   0  0  0  0  0  0  0  0  0  0  0  0
   -3.4234   -0.8430    0.1789 N   0  0  0  0  0  0  0  0  0  0  0  0
   -0.0308    0.0048    0.0879 N   0  0  0  0  0  0  0  0  0  0  0  0
   -0.2423    1.3806   -0.0519 C   0  0  0  0  0  0  0  0  0  0  0  0
   -1.3249    2.0225    0.7785 C   0  0  0  0  0  0  0  0  0  0  0  0
   -1.3415    3.4043    0.4509 O   0  0  0  0  0  0  0  0  0  0  0  0
    1.3163   -0.3142   -0.3566 C   0  0  0  0  0  0  0  0  0  0  0  0
    2.4175    0.2753    0.4465 C   0  0  0  0  0  0  0  0  0  0  0  0
    3.7477   -0.1289   -0.1949 C   0  0  0  0  0  0  0  0  0  0  0  0
    3.7965   -1.5187   -0.2001 O   0  0  0  0  0  0  0  0  0  0  0  0
   -1.7812   -0.0243   -2.2397 H   0  0  0  0  0  0  0  0  0  0  0  0
   -2.0115   -1.7514   -2.0383 H   0  0  0  0  0  0  0  0  0  0  0  0
   -0.3910   -1.2144   -2.4715 H   0  0  0  0  0  0  0  0  0  0  0  0
   -0.3036   -1.9318   -0.3475 H   0  0  0  0  0  0  0  0  0  0  0  0
   -1.0884   -2.5086    1.7460 H   0  0  0  0  0  0  0  0  0  0  0  0
   -4.0333   -1.2640   -0.5641 H   0  0  0  0  0  0  0  0  0  0  0  0
   -3.8237   -0.0811    0.7376 H   0  0  0  0  0  0  0  0  0  0  0  0
   -0.3953    1.7197   -1.1216 H   0  0  0  0  0  0  0  0  0  0  0  0
    0.6851    1.9446    0.2288 H   0  0  0  0  0  0  0  0  0  0  0  0
   -2.3106    1.6195    0.6734 H   0  0  0  0  0  0  0  0  0  0  0  0
   -1.0565    1.9997    1.8790 H   0  0  0  0  0  0  0  0  0  0  0  0
   -1.9733    3.9173    0.9720 H   0  0  0  0  0  0  0  0  0  0  0  0
    1.4494   -1.4165   -0.4075 H   0  0  0  0  0  0  0  0  0  0  0  0
    1.3974    0.1114   -1.4001 H   0  0  0  0  0  0  0  0  0  0  0  0
    2.4162    1.3523    0.6216 H   0  0  0  0  0  0  0  0  0  0  0  0
    2.4359   -0.1983    1.4952 H   0  0  0  0  0  0  0  0  0  0  0  0
    3.7220    0.2178   -1.2472 H   0  0  0  0  0  0  0  0  0  0  0  0
    4.5919    0.3375    0.3704 H   0  0  0  0  0  0  0  0  0  0  0  0
    3.9190   -1.8549   -1.1478 H   0  0  0  0  0  0  0  0  0  0  0  0
  1  2  1  0
  2  3  1  0
  3  4  2  3
  3  5  1  0
  2  6  1  0
  6  7  1  0
  7  8  1  0
  8  9  1  0
  6 10  1  0
 10 11  1  0
 11 12  1  0
 12 13  1  0
  1 14  1  0
  1 15  1  0
  1 16  1  0
  2 17  1  6
  4 18  1  0
  5 19  1  0
  5 20  1  0
  7 21  1  0
  7 22  1  0
  8 23  1  0
  8 24  1  0
  9 25  1  0
 10 26  1  0
 10 27  1  0
 11 28  1  0
 11 29  1  0
 12 30  1  0
 12 31  1  0
 13 32  1  0
M  END
$$$$

     RDKit          3D

 32 31  0  0  0  0  0  0  0  0999 V2000
   -2.3779   -0.1208   -1.4661 C   0  0  0  0  0  0  0  0  0  0  0  0
   -1.2466   -0.5012   -0.5341 C   0  0  2  0  0  0  0  0  0  0  0  0
   -1.8654   -1.3939    0.4775 C   0  0  0  0  0  0  0  0  0  0  0  0
   -2.0449   -1.0861    1.7155 N   0  0  0  0  0  0  0  0  0  0  0  0
   -2.2996   -2.6779    0.0066 N   0  0  0  0  0  0  0  0  0  0  0  0
   -0.5164    0.6010   -0.0252 N   0  0  0  0  0  0  0  0  0  0  0  0
    0.0783    1.3248   -1.1389 C   0  0  0  0  0  0  0  0  0  0  0  0
    0.8800    2.5078   -0.7120 C   0  0  0  0  0  0  0  0  0  0  0  0
    0.1150    3.4511   -0.0082 O   0  0  0  0  0  0  0  0  0  0  0  0
    0.5121    0.1846    0.8977 C   0  0  0  0  0  0  0  0  0  0  0  0
    1.6293   -0.5952    0.2732 C   0  0  0  0  0  0  0  0  0  0  0  0
    2.6233   -0.9629    1.3840 C   0  0  0  0  0  0  0  0  0  0  0  0
    3.0968    0.2130    1.9491 O   0  0  0  0  0  0  0  0  0  0  0  0
   -2.0614    0.3031   -2.4158 H   0  0  0  0  0  0  0  0  0  0  0  0
   -3.1146    0.4549   -0.8921 H   0  0  0  0  0  0  0  0  0  0  0  0
   -2.8834   -1.0978   -1.7245 H   0  0  0  0  0  0  0  0  0  0  0  0
   -0.5374   -1.1605   -1.1164 H   0  0  0  0  0  0  0  0  0  0  0  0
   -2.4829   -1.7606    2.3607 H   0  0  0  0  0  0  0  0  0  0  0  0
   -2.2999   -2.9142   -1.0022 H   0  0  0  0  0  0  0  0  0  0  0  0
   -2.6216   -3.3876    0.6815 H   0  0  0  0  0  0  0  0  0  0  0  0
   -0.7651    1.7147   -1.7507 H   0  0  0  0  0  0  0  0  0  0  0  0
    0.7236    0.6314   -1.6830 H   0  0  0  0  0  0  0  0  0  0  0  0
    1.1781    3.0414   -1.6628 H   0  0  0  0  0  0  0  0  0  0  0  0
    1.8127    2.3058   -0.1873 H   0  0  0  0  0  0  0  0  0  0  0  0
    0.3077    4.3850   -0.3114 H   0  0  0  0  0  0  0  0  0  0  0  0
    0.1075   -0.3071    1.7686 H   0  0  0  0  0  0  0  0  0  0  0  0
    1.0009    1.1312    1.2919 H   0  0  0  0  0  0  0  0  0  0  0  0
    1.3142   -1.5447   -0.1868 H   0  0  0  0  0  0  0  0  0  0  0  0
    2.2048   -0.0340   -0.4785 H   0  0  0  0  0  0  0  0  0  0  0  0
    3.4769   -1.5354    0.9291 H   0  0  0  0  0  0  0  0  0  0  0  0
    2.1140   -1.6139    2.1138 H   0  0  0  0  0  0  0  0  0  0  0  0
    3.9420    0.4441    1.4468 H   0  0  0  0  0  0  0  0  0  0  0  0
  1  2  1  0
  2  3  1  0
  3  4  2  3
  3  5  1  0
  2  6  1  0
  6  7  1  0
  7  8  1  0
  8  9  1  0
  6 10  1  0
 10 11  1  0
 11 12  1  0
 12 13  1  0
  1 14  1  0
  1 15  1  0
  1 16  1  0
  2 17  1  6
  4 18  1  0
  5 19  1  0
  5 20  1  0
  7 21  1  0
  7 22  1  0
  8 23  1  0
  8 24  1  0
  9 25  1  0
 10 26  1  0
 10 27  1  0
 11 28  1  0
 11 29  1  0
 12 30  1  0
 12 31  1  0
 13 32  1  0
M  END
$$$$

     RDKit          3D

 32 31  0  0  0  0  0  0  0  0999 V2000
   -1.5710   -0.6893   -2.1356 C   0  0  0  0  0  0  0  0  0  0  0  0
   -1.0338   -0.6478   -0.6895 C   0  0  2  0  0  0  0  0  0  0  0  0
   -2.1315   -0.9862    0.2394 C   0  0  0  0  0  0  0  0  0  0  0  0
   -3.1180   -0.2046    0.4854 N   0  0  0  0  0  0  0  0  0  0  0  0
   -2.2418   -2.2576    0.9157 N   0  0  0  0  0  0  0  0  0  0  0  0
   -0.1424    0.3442   -0.4530 N   0  0  0  0  0  0  0  0  0  0  0  0
   -0.2579    1.7085   -0.4594 C   0  0  0  0  0  0  0  0  0  0  0  0
   -0.9195    2.4525    0.6440 C   0  0  0  0  0  0  0  0  0  0  0  0
   -0.8454    3.8378    0.2927 O   0  0  0  0  0  0  0  0  0  0  0  0
    1.2587   -0.0368   -0.5858 C   0  0  0  0  0  0  0  0  0  0  0  0
    1.7435   -0.9647    0.4776 C   0  0  0  0  0  0  0  0  0  0  0  0
    3.2194   -1.2304    0.1478 C   0  0  0  0  0  0  0  0  0  0  0  0
    3.9514   -0.0535    0.1351 O   0  0  0  0  0  0  0  0  0  0  0  0
   -1.9859   -1.7149   -2.2580 H   0  0  0  0  0  0  0  0  0  0  0  0
   -0.7110   -0.5839   -2.7976 H   0  0  0  0  0  0  0  0  0  0  0  0
   -2.3993    0.0082   -2.2678 H   0  0  0  0  0  0  0  0  0  0  0  0
   -0.3985   -1.6321   -0.6908 H   0  0  0  0  0  0  0  0  0  0  0  0
   -3.3376    0.7099    0.1338 H   0  0  0  0  0  0  0  0  0  0  0  0
   -1.5627   -2.5798    1.6091 H   0  0  0  0  0  0  0  0  0  0  0  0
   -3.0581   -2.8415    0.6626 H   0  0  0  0  0  0  0  0  0  0  0  0
   -0.7639    2.1238   -1.4146 H   0  0  0  0  0  0  0  0  0  0  0  0
    0.7701    2.2289   -0.5725 H   0  0  0  0  0  0  0  0  0  0  0  0
   -0.3411    2.4183    1.6044 H   0  0  0  0  0  0  0  0  0  0  0  0
   -1.9434    2.2731    0.8864 H   0  0  0  0  0  0  0  0  0  0  0  0
    0.0959    4.1181    0.2324 H   0  0  0  0  0  0  0  0  0  0  0  0
    1.9321    0.8429   -0.5824 H   0  0  0  0  0  0  0  0  0  0  0  0
    1.3830   -0.5759   -1.5704 H   0  0  0  0  0  0  0  0  0  0  0  0
    1.2562   -1.9345    0.5351 H   0  0  0  0  0  0  0  0  0  0  0  0
    1.7582   -0.5020    1.4959 H   0  0  0  0  0  0  0  0  0  0  0  0
    3.2298   -1.6278   -0.8805 H   0  0  0  0  0  0  0  0  0  0  0  0
    3.6425   -1.9984    0.8163 H   0  0  0  0  0  0  0  0  0  0  0  0
    4.5222   -0.0047    0.9311 H   0  0  0  0  0  0  0  0  0  0  0  0
  1  2  1  0
  2  3  1  0
  3  4  2  3
  3  5  1  0
  2  6  1  0
  6  7  1  0
  7  8  1  0
  8  9  1  0
  6 10  1  0
 10 11  1  0
 11 12  1  0
 12 13  1  0
  1 14  1  0
  1 15  1  0
  1 16  1  0
  2 17  1  6
  4 18  1  0
  5 19  1  0
  5 20  1  0
  7 21  1  0
  7 22  1  0
  8 23  1  0
  8 24  1  0
  9 25  1  0
 10 26  1  0
 10 27  1  0
 11 28  1  0
 11 29  1  0
 12 30  1  0
 12 31  1  0
 13 32  1  0
M  END
$$$$
