
     RDKit          3D

 24 24  0  0  0  0  0  0  0  0999 V2000
   -3.1036   -0.9877    0.7909 O   0  0  0  0  0  0  0  0  0  0  0  0
   -3.3005    0.3670    0.6759 C   0  0  0  0  0  0  0  0  0  0  0  0
   -2.4989    1.0472   -0.3853 C   0  0  0  0  0  0  0  0  0  0  0  0
   -1.0871    0.9593   -0.2667 N   0  0  0  0  0  0  0  0  0  0  0  0
   -0.5167   -0.3305   -0.4592 C   0  0  0  0  0  0  0  0  0  0  0  0
    0.9830   -0.2227   -0.3081 C   0  0  0  0  0  0  0  0  0  0  0  0
    1.7796   -1.3385   -0.3286 C   0  0  0  0  0  0  0  0  0  0  0  0
    3.1418   -1.2613   -0.1934 C   0  0  0  0  0  0  0  0  0  0  0  0
    3.9712   -2.3829   -0.2113 O   0  0  0  0  0  0  0  0  0  0  0  0
    3.6873   -0.0363   -0.0368 N   0  0  0  0  0  0  0  0  0  0  0  0
    2.8837    1.0647   -0.0188 C   0  0  0  0  0  0  0  0  0  0  0  0
    3.5498    2.2771    0.1475 O   0  0  0  0  0  0  0  0  0  0  0  0
    1.5520    0.9812   -0.1517 N   0  0  0  0  0  0  0  0  0  0  0  0
   -3.5319   -1.5004    0.0429 H   0  0  0  0  0  0  0  0  0  0  0  0
   -4.3784    0.5140    0.4414 H   0  0  0  0  0  0  0  0  0  0  0  0
   -3.1322    0.8566    1.6587 H   0  0  0  0  0  0  0  0  0  0  0  0
   -2.7881    0.7196   -1.4099 H   0  0  0  0  0  0  0  0  0  0  0  0
   -2.7603    2.1442   -0.3131 H   0  0  0  0  0  0  0  0  0  0  0  0
   -0.6884    1.4751    0.5473 H   0  0  0  0  0  0  0  0  0  0  0  0
   -0.8135   -0.8437   -1.3687 H   0  0  0  0  0  0  0  0  0  0  0  0
   -0.8136   -0.9806    0.4116 H   0  0  0  0  0  0  0  0  0  0  0  0
    1.3181   -2.3057   -0.4547 H   0  0  0  0  0  0  0  0  0  0  0  0
    3.5731   -3.3203   -0.1959 H   0  0  0  0  0  0  0  0  0  0  0  0
    2.9736    3.1045    0.1867 H   0  0  0  0  0  0  0  0  0  0  0  0
  1  2  1  0
  2  3  1  0
  3  4  1  0
  4  5  1  0
  5  6  1  0
  6  7  2  0
  7  8  1  0
  8  9  1  0
  8 10  2  0
 10 11  1  0
 11 12  1  0
 11 13  2  0
 13  6  1  0
  1 14  1  0
  2 15  1  0
  2 16  1  0
  3 17  1  0
  3 18  1  0
  4 19  1  0
  5 20  1  0
  5 21  1  0
  7 22  1  0
  9 23  1  0
 12 24  1  0
M  END
$$$$

     RDKit          3D

 24 24  0  0  0  0  0  0  0  0999 V2000
    4.8154   -0.7913    0.1329 O   0  0  0  0  0  0  0  0  0  0  0  0
    3.5054   -1.2992    0.0134 C   0  0  0  0  0  0  0  0  0  0  0  0
    2.5747   -0.1337    0.0795 C   0  0  0  0  0  0  0  0  0  0  0  0
    1.1937   -0.4870   -0.0285 N   0  0  0  0  0  0  0  0  0  0  0  0
    0.3754    0.6983    0.0456 C   0  0  0  0  0  0  0  0  0  0  0  0
   -1.0647    0.4078   -0.0595 C   0  0  0  0  0  0  0  0  0  0  0  0
   -1.9925    1.4242   -0.0084 C   0  0  0  0  0  0  0  0  0  0  0  0
   -3.3455    1.1582   -0.1064 C   0  0  0  0  0  0  0  0  0  0  0  0
   -4.2770    2.1835   -0.0546 O   0  0  0  0  0  0  0  0  0  0  0  0
   -3.7122   -0.1175   -0.2519 N   0  0  0  0  0  0  0  0  0  0  0  0
   -2.8326   -1.1370   -0.3059 C   0  0  0  0  0  0  0  0  0  0  0  0
   -3.3083   -2.4328   -0.4591 O   0  0  0  0  0  0  0  0  0  0  0  0
   -1.5203   -0.8445   -0.2073 N   0  0  0  0  0  0  0  0  0  0  0  0
    4.8345   -0.0329    0.7735 H   0  0  0  0  0  0  0  0  0  0  0  0
    3.3726   -1.9710    0.8916 H   0  0  0  0  0  0  0  0  0  0  0  0
    3.4585   -1.8755   -0.9138 H   0  0  0  0  0  0  0  0  0  0  0  0
    2.8211    0.5816   -0.7271 H   0  0  0  0  0  0  0  0  0  0  0  0
    2.7213    0.3571    1.0688 H   0  0  0  0  0  0  0  0  0  0  0  0
    0.9494   -1.1150   -0.7993 H   0  0  0  0  0  0  0  0  0  0  0  0
    0.6455    1.4349   -0.7587 H   0  0  0  0  0  0  0  0  0  0  0  0
    0.5730    1.2302    0.9999 H   0  0  0  0  0  0  0  0  0  0  0  0
   -1.6258    2.4492    0.1123 H   0  0  0  0  0  0  0  0  0  0  0  0
   -4.0192    3.0046    0.4783 H   0  0  0  0  0  0  0  0  0  0  0  0
   -4.1424   -2.6921    0.0847 H   0  0  0  0  0  0  0  0  0  0  0  0
  1  2  1  0
  2  3  1  0
  3  4  1  0
  4  5  1  0
  5  6  1  0
  6  7  2  0
  7  8  1  0
  8  9  1  0
  8 10  2  0
 10 11  1  0
 11 12  1  0
 11 13  2  0
 13  6  1  0
  1 14  1  0
  2 15  1  0
  2 16  1  0
  3 17  1  0
  3 18  1  0
  4 19  1  0
  5 20  1  0
  5 21  1  0
  7 22  1  0
  9 23  1  0
 12 24  1  0
M  END
$$$$

     RDKit          3D

 24 24  0  0  0  0  0  0  0  0999 V2000
   -4.4446   -0.9654    1.7706 O   0  0  0  0  0  0  0  0  0  0  0  0
   -3.1850   -1.3369    1.3311 C   0  0  0  0  0  0  0  0  0  0  0  0
   -2.4201   -0.1049    0.9822 C   0  0  0  0  0  0  0  0  0  0  0  0
   -1.0971   -0.3721    0.5136 N   0  0  0  0  0  0  0  0  0  0  0  0
   -0.3945    0.8407    0.1889 C   0  0  0  0  0  0  0  0  0  0  0  0
    0.9716    0.6162   -0.2980 C   0  0  0  0  0  0  0  0  0  0  0  0
    2.0480    0.5653    0.5627 C   0  0  0  0  0  0  0  0  0  0  0  0
    3.3401    0.3548    0.1201 C   0  0  0  0  0  0  0  0  0  0  0  0
    4.4367    0.3000    0.9671 O   0  0  0  0  0  0  0  0  0  0  0  0
    3.5424    0.1961   -1.1920 N   0  0  0  0  0  0  0  0  0  0  0  0
    2.4999    0.2427   -2.0514 C   0  0  0  0  0  0  0  0  0  0  0  0
    2.7345    0.0747   -3.4133 O   0  0  0  0  0  0  0  0  0  0  0  0
    1.2306    0.4505   -1.6065 N   0  0  0  0  0  0  0  0  0  0  0  0
   -5.0067   -0.8012    0.9657 H   0  0  0  0  0  0  0  0  0  0  0  0
   -3.2432   -2.0138    0.4561 H   0  0  0  0  0  0  0  0  0  0  0  0
   -2.6690   -1.8371    2.1696 H   0  0  0  0  0  0  0  0  0  0  0  0
   -3.0277    0.5146    0.3043 H   0  0  0  0  0  0  0  0  0  0  0  0
   -2.3141    0.5048    1.9266 H   0  0  0  0  0  0  0  0  0  0  0  0
   -1.0250   -1.1066   -0.1990 H   0  0  0  0  0  0  0  0  0  0  0  0
   -1.0189    1.3907   -0.5520 H   0  0  0  0  0  0  0  0  0  0  0  0
   -0.3691    1.4757    1.0942 H   0  0  0  0  0  0  0  0  0  0  0  0
    1.9164    0.6895    1.6224 H   0  0  0  0  0  0  0  0  0  0  0  0
    5.1924    0.9663    0.8002 H   0  0  0  0  0  0  0  0  0  0  0  0
    2.3024   -0.6446   -3.9626 H   0  0  0  0  0  0  0  0  0  0  0  0
  1  2  1  0
  2  3  1  0
  3  4  1  0
  4  5  1  0
  5  6  1  0
  6  7  2  0
  7  8  1  0
  8  9  1  0
  8 10  2  0
 10 11  1  0
 11 12  1  0
 11 13  2  0
 13  6  1  0
  1 14  1  0
  2 15  1  0
  2 16  1  0
  3 17  1  0
  3 18  1  0
  4 19  1  0
  5 20  1  0
  5 21  1  0
  7 22  1  0
  9 23  1  0
 12 24  1  0
M  END
$$$$

     RDKit          3D

 24 24  0  0  0  0  0  0  0  0999 V2000
    4.7637   -0.7449   -0.7409 O   0  0  0  0  0  0  0  0  0  0  0  0
    3.5815   -0.7136   -0.0438 C   0  0  0  0  0  0  0  0  0  0  0  0
    2.4333   -0.4068   -0.9940 C   0  0  0  0  0  0  0  0  0  0  0  0
    1.1868   -0.3765   -0.2433 N   0  0  0  0  0  0  0  0  0  0  0  0
    0.1220   -0.0826   -1.1790 C   0  0  0  0  0  0  0  0  0  0  0  0
   -1.2021   -0.0228   -0.5433 C   0  0  0  0  0  0  0  0  0  0  0  0
   -1.6614    1.1801   -0.0518 C   0  0  0  0  0  0  0  0  0  0  0  0
   -2.8935    1.3095    0.5566 C   0  0  0  0  0  0  0  0  0  0  0  0
   -3.3670    2.5043    1.0530 O   0  0  0  0  0  0  0  0  0  0  0  0
   -3.6413    0.1949    0.6523 N   0  0  0  0  0  0  0  0  0  0  0  0
   -3.2210   -0.9925    0.1826 C   0  0  0  0  0  0  0  0  0  0  0  0
   -4.0635   -2.1028    0.3237 O   0  0  0  0  0  0  0  0  0  0  0  0
   -2.0062   -1.0915   -0.4107 N   0  0  0  0  0  0  0  0  0  0  0  0
    5.1947    0.1550   -0.7358 H   0  0  0  0  0  0  0  0  0  0  0  0
    3.5965    0.0619    0.7410 H   0  0  0  0  0  0  0  0  0  0  0  0
    3.3447   -1.7039    0.4260 H   0  0  0  0  0  0  0  0  0  0  0  0
    2.3563   -1.1881   -1.7782 H   0  0  0  0  0  0  0  0  0  0  0  0
    2.6139    0.5516   -1.5292 H   0  0  0  0  0  0  0  0  0  0  0  0
    1.2176    0.3664    0.4840 H   0  0  0  0  0  0  0  0  0  0  0  0
    0.1890   -0.8325   -1.9996 H   0  0  0  0  0  0  0  0  0  0  0  0
    0.3612    0.9302   -1.6057 H   0  0  0  0  0  0  0  0  0  0  0  0
   -1.0499    2.0655   -0.1359 H   0  0  0  0  0  0  0  0  0  0  0  0
   -3.4151    3.2824    0.3954 H   0  0  0  0  0  0  0  0  0  0  0  0
   -4.4402   -2.3434    1.2542 H   0  0  0  0  0  0  0  0  0  0  0  0
  1  2  1  0
  2  3  1  0
  3  4  1  0
  4  5  1  0
  5  6  1  0
  6  7  2  0
  7  8  1  0
  8  9  1  0
  8 10  2  0
 10 11  1  0
 11 12  1  0
 11 13  2  0
 13  6  1  0
  1 14  1  0
  2 15  1  0
  2 16  1  0
  3 17  1  0
  3 18  1  0
  4 19  1  0
  5 20  1  0
  5 21  1  0
  7 22  1  0
  9 23  1  0
 12 24  1  0
M  END
$$$$

     RDKit          3D

 24 24  0  0  0  0  0  0  0  0999 V2000
    3.1210   -1.3697   -0.9820 O   0  0  0  0  0  0  0  0  0  0  0  0
    3.2348   -0.6654    0.2309 C   0  0  0  0  0  0  0  0  0  0  0  0
    2.6317    0.6921    0.0030 C   0  0  0  0  0  0  0  0  0  0  0  0
    1.2426    0.5470   -0.3858 N   0  0  0  0  0  0  0  0  0  0  0  0
    0.4820    0.0831    0.7432 C   0  0  0  0  0  0  0  0  0  0  0  0
   -0.9873   -0.0177    0.4257 C   0  0  0  0  0  0  0  0  0  0  0  0
   -1.3968   -0.1554   -0.8702 C   0  0  0  0  0  0  0  0  0  0  0  0
   -2.7693   -0.2377   -1.1337 C   0  0  0  0  0  0  0  0  0  0  0  0
   -3.1322   -0.3762   -2.4642 O   0  0  0  0  0  0  0  0  0  0  0  0
   -3.5930   -0.1764   -0.0979 N   0  0  0  0  0  0  0  0  0  0  0  0
   -3.1847   -0.0413    1.1777 C   0  0  0  0  0  0  0  0  0  0  0  0
   -4.1266    0.0162    2.2205 O   0  0  0  0  0  0  0  0  0  0  0  0
   -1.8810    0.0394    1.4587 N   0  0  0  0  0  0  0  0  0  0  0  0
    3.6906   -0.8789   -1.6330 H   0  0  0  0  0  0  0  0  0  0  0  0
    2.7920   -1.2468    1.0413 H   0  0  0  0  0  0  0  0  0  0  0  0
    4.3192   -0.5620    0.5022 H   0  0  0  0  0  0  0  0  0  0  0  0
    2.6308    1.3077    0.9372 H   0  0  0  0  0  0  0  0  0  0  0  0
    3.1987    1.2254   -0.8075 H   0  0  0  0  0  0  0  0  0  0  0  0
    1.1722   -0.1123   -1.2031 H   0  0  0  0  0  0  0  0  0  0  0  0
    0.6067    0.6998    1.6394 H   0  0  0  0  0  0  0  0  0  0  0  0
    0.8598   -0.9373    1.0373 H   0  0  0  0  0  0  0  0  0  0  0  0
   -0.6942   -0.2063   -1.7143 H   0  0  0  0  0  0  0  0  0  0  0  0
   -4.0224   -0.0395   -2.7887 H   0  0  0  0  0  0  0  0  0  0  0  0
   -4.1947    0.9387    2.6632 H   0  0  0  0  0  0  0  0  0  0  0  0
  1  2  1  0
  2  3  1  0
  3  4  1  0
  4  5  1  0
  5  6  1  0
  6  7  2  0
  7  8  1  0
  8  9  1  0
  8 10  2  0
 10 11  1  0
 11 12  1  0
 11 13  2  0
 13  6  1  0
  1 14  1  0
  2 15  1  0
  2 16  1  0
  3 17  1  0
  3 18  1  0
  4 19  1  0
  5 20  1  0
  5 21  1  0
  7 22  1  0
  9 23  1  0
 12 24  1  0
M  END
$$$$

     RDKit          3D

 24 24  0  0  0  0  0  0  0  0999 V2000
   -4.1573    0.2509   -1.0108 O   0  0  0  0  0  0  0  0  0  0  0  0
   -3.5775   -0.8969   -0.4024 C   0  0  0  0  0  0  0  0  0  0  0  0
   -2.3255   -0.5581    0.3205 C   0  0  0  0  0  0  0  0  0  0  0  0
   -1.2993   -0.0729   -0.5336 N   0  0  0  0  0  0  0  0  0  0  0  0
   -0.4047    0.8224    0.1262 C   0  0  0  0  0  0  0  0  0  0  0  0
    1.0179    0.5863   -0.0009 C   0  0  0  0  0  0  0  0  0  0  0  0
    1.5655   -0.5896   -0.4762 C   0  0  0  0  0  0  0  0  0  0  0  0
    2.9167   -0.7710   -0.4008 C   0  0  0  0  0  0  0  0  0  0  0  0
    3.5336   -1.9282   -0.8460 O   0  0  0  0  0  0  0  0  0  0  0  0
    3.7320    0.1869    0.1291 N   0  0  0  0  0  0  0  0  0  0  0  0
    3.1891    1.3258    0.5828 C   0  0  0  0  0  0  0  0  0  0  0  0
    4.0277    2.3166    1.1301 O   0  0  0  0  0  0  0  0  0  0  0  0
    1.8712    1.5209    0.5200 N   0  0  0  0  0  0  0  0  0  0  0  0
   -4.4765    0.7984   -0.2262 H   0  0  0  0  0  0  0  0  0  0  0  0
   -4.3710   -1.3932    0.1741 H   0  0  0  0  0  0  0  0  0  0  0  0
   -3.3817   -1.5647   -1.3059 H   0  0  0  0  0  0  0  0  0  0  0  0
   -1.9479   -1.4734    0.8930 H   0  0  0  0  0  0  0  0  0  0  0  0
   -2.5268    0.1755    1.1175 H   0  0  0  0  0  0  0  0  0  0  0  0
   -1.0132   -0.5744   -1.3448 H   0  0  0  0  0  0  0  0  0  0  0  0
   -0.5614    1.8413   -0.4422 H   0  0  0  0  0  0  0  0  0  0  0  0
   -0.6912    1.0131    1.1544 H   0  0  0  0  0  0  0  0  0  0  0  0
    0.9138   -1.3289   -0.8992 H   0  0  0  0  0  0  0  0  0  0  0  0
    3.6442   -2.6847   -0.1567 H   0  0  0  0  0  0  0  0  0  0  0  0
    4.3222    2.9980    0.4673 H   0  0  0  0  0  0  0  0  0  0  0  0
  1  2  1  0
  2  3  1  0
  3  4  1  0
  4  5  1  0
  5  6  1  0
  6  7  2  0
  7  8  1  0
  8  9  1  0
  8 10  2  0
 10 11  1  0
 11 12  1  0
 11 13  2  0
 13  6  1  0
  1 14  1  0
  2 15  1  0
  2 16  1  0
  3 17  1  0
  3 18  1  0
  4 19  1  0
  5 20  1  0
  5 21  1  0
  7 22  1  0
  9 23  1  0
 12 24  1  0
M  END
$$$$

     RDKit          3D

 24 24  0  0  0  0  0  0  0  0999 V2000
    4.7838    0.1747    0.2385 O   0  0  0  0  0  0  0  0  0  0  0  0
    3.5370    0.7817    0.3993 C   0  0  0  0  0  0  0  0  0  0  0  0
    2.5012   -0.2158   -0.0309 C   0  0  0  0  0  0  0  0  0  0  0  0
    1.1446    0.2837    0.0837 N   0  0  0  0  0  0  0  0  0  0  0  0
    0.3003   -0.7934   -0.3661 C   0  0  0  0  0  0  0  0  0  0  0  0
   -1.1290   -0.4957   -0.3312 C   0  0  0  0  0  0  0  0  0  0  0  0
   -1.6071    0.7219    0.1008 C   0  0  0  0  0  0  0  0  0  0  0  0
   -2.9781    0.9972    0.1304 C   0  0  0  0  0  0  0  0  0  0  0  0
   -3.4437    2.2274    0.5678 O   0  0  0  0  0  0  0  0  0  0  0  0
   -3.8193    0.0278   -0.2792 N   0  0  0  0  0  0  0  0  0  0  0  0
   -3.3576   -1.1788   -0.7080 C   0  0  0  0  0  0  0  0  0  0  0  0
   -4.2937   -2.1198   -1.1121 O   0  0  0  0  0  0  0  0  0  0  0  0
   -2.0245   -1.4175   -0.7259 N   0  0  0  0  0  0  0  0  0  0  0  0
    5.4412    0.7837   -0.1801 H   0  0  0  0  0  0  0  0  0  0  0  0
    3.4149    0.9288    1.5055 H   0  0  0  0  0  0  0  0  0  0  0  0
    3.4597    1.7482   -0.1050 H   0  0  0  0  0  0  0  0  0  0  0  0
    2.5737   -1.1139    0.5943 H   0  0  0  0  0  0  0  0  0  0  0  0
    2.6861   -0.4214   -1.1186 H   0  0  0  0  0  0  0  0  0  0  0  0
    0.9730    1.1056   -0.5436 H   0  0  0  0  0  0  0  0  0  0  0  0
    0.4997   -1.6688    0.3155 H   0  0  0  0  0  0  0  0  0  0  0  0
    0.6052   -1.1018   -1.4042 H   0  0  0  0  0  0  0  0  0  0  0  0
   -0.9069    1.4864    0.4259 H   0  0  0  0  0  0  0  0  0  0  0  0
   -4.4160    2.3372    0.7757 H   0  0  0  0  0  0  0  0  0  0  0  0
   -3.9445   -3.0775   -1.2202 H   0  0  0  0  0  0  0  0  0  0  0  0
  1  2  1  0
  2  3  1  0
  3  4  1  0
  4  5  1  0
  5  6  1  0
  6  7  2  0
  7  8  1  0
  8  9  1  0
  8 10  2  0
 10 11  1  0
 11 12  1  0
 11 13  2  0
 13  6  1  0
  1 14  1  0
  2 15  1  0
  2 16  1  0
  3 17  1  0
  3 18  1  0
  4 19  1  0
  5 20  1  0
  5 21  1  0
  7 22  1  0
  9 23  1  0
 12 24  1  0
M  END
$$$$

     RDKit          3D

 24 24  0  0  0  0  0  0  0  0999 V2000
   -4.8377    0.8052    0.1972 O   0  0  0  0  0  0  0  0  0  0  0  0
   -3.5022    1.1535    0.2626 C   0  0  0  0  0  0  0  0  0  0  0  0
   -2.5966   -0.0036   -0.1169 C   0  0  0  0  0  0  0  0  0  0  0  0
   -1.2000    0.3798   -0.0427 N   0  0  0  0  0  0  0  0  0  0  0  0
   -0.3827   -0.7413   -0.4086 C   0  0  0  0  0  0  0  0  0  0  0  0
    1.0690   -0.3688   -0.3393 C   0  0  0  0  0  0  0  0  0  0  0  0
    2.0463   -1.2904   -0.6497 C   0  0  0  0  0  0  0  0  0  0  0  0
    3.3906   -0.9662   -0.5918 C   0  0  0  0  0  0  0  0  0  0  0  0
    4.3676   -1.9116   -0.9095 O   0  0  0  0  0  0  0  0  0  0  0  0
    3.7035    0.2871   -0.2196 N   0  0  0  0  0  0  0  0  0  0  0  0
    2.7777    1.2152    0.0912 C   0  0  0  0  0  0  0  0  0  0  0  0
    3.0982    2.5085    0.4753 O   0  0  0  0  0  0  0  0  0  0  0  0
    1.4791    0.8595    0.0223 N   0  0  0  0  0  0  0  0  0  0  0  0
   -4.9962    0.0021    0.7161 H   0  0  0  0  0  0  0  0  0  0  0  0
   -3.3495    2.0216   -0.4025 H   0  0  0  0  0  0  0  0  0  0  0  0
   -3.2885    1.4638    1.2982 H   0  0  0  0  0  0  0  0  0  0  0  0
   -2.8026   -0.3269   -1.1572 H   0  0  0  0  0  0  0  0  0  0  0  0
   -2.7846   -0.8385    0.5852 H   0  0  0  0  0  0  0  0  0  0  0  0
   -0.9545    0.6287    0.9510 H   0  0  0  0  0  0  0  0  0  0  0  0
   -0.6465   -1.0948   -1.4442 H   0  0  0  0  0  0  0  0  0  0  0  0
   -0.5476   -1.5699    0.2857 H   0  0  0  0  0  0  0  0  0  0  0  0
    1.7478   -2.2852   -0.9436 H   0  0  0  0  0  0  0  0  0  0  0  0
    4.2406   -2.8919   -0.8202 H   0  0  0  0  0  0  0  0  0  0  0  0
    3.9690    2.9643    0.2782 H   0  0  0  0  0  0  0  0  0  0  0  0
  1  2  1  0
  2  3  1  0
  3  4  1  0
  4  5  1  0
  5  6  1  0
  6  7  2  0
  7  8  1  0
  8  9  1  0
  8 10  2  0
 10 11  1  0
 11 12  1  0
 11 13  2  0
 13  6  1  0
  1 14  1  0
  2 15  1  0
  2 16  1  0
  3 17  1  0
  3 18  1  0
  4 19  1  0
  5 20  1  0
  5 21  1  0
  7 22  1  0
  9 23  1  0
 12 24  1  0
M  END
$$$$
