
     RDKit          3D

 24 24  0  0  0  0  0  0  0  0999 V2000
   -1.0605   -1.6302    0.3778 C   0  0  0  0  0  0  0  0  0  0  0  0
   -1.3930   -0.2636    0.0841 N   0  0  0  0  0  0  0  0  0  0  0  0
   -2.7131    0.3257    0.0502 C   0  0  0  0  0  0  0  0  0  0  0  0
   -3.8166   -0.2974    0.2844 N   0  0  0  0  0  0  0  0  0  0  0  0
   -2.6264    1.6883   -0.2768 N   0  0  0  0  0  0  0  0  0  0  0  0
   -1.2731    2.0255   -0.4632 C   0  0  0  0  0  0  0  0  0  0  0  0
   -0.8155    3.1452   -0.7625 O   0  0  0  0  0  0  0  0  0  0  0  0
   -0.4841    0.7722   -0.2311 C   0  0  0  0  0  0  0  0  0  0  0  0
    0.8311    0.7111   -0.3179 C   0  0  0  0  0  0  0  0  0  0  0  0
    1.5535   -0.5294   -0.0794 C   0  0  1  0  0  0  0  0  0  0  0  0
    1.8753   -1.2244   -1.2504 O   0  0  0  0  0  0  0  0  0  0  0  0
    2.9864   -0.0415    0.3370 C   0  0  0  0  0  0  0  0  0  0  0  0
    2.8532    0.6819    1.5065 O   0  0  0  0  0  0  0  0  0  0  0  0
   -2.0608   -2.1853    0.2999 H   0  0  0  0  0  0  0  0  0  0  0  0
   -0.4790   -2.1625   -0.3658 H   0  0  0  0  0  0  0  0  0  0  0  0
   -0.8222   -1.8212    1.4424 H   0  0  0  0  0  0  0  0  0  0  0  0
   -3.8782   -1.3012    0.5255 H   0  0  0  0  0  0  0  0  0  0  0  0
   -3.4223    2.3669   -0.3732 H   0  0  0  0  0  0  0  0  0  0  0  0
    1.3439    1.6547   -0.5836 H   0  0  0  0  0  0  0  0  0  0  0  0
    1.3019   -1.1283    0.7776 H   0  0  0  0  0  0  0  0  0  0  0  0
    2.1574   -2.1372   -0.9888 H   0  0  0  0  0  0  0  0  0  0  0  0
    3.3560    0.6186   -0.4494 H   0  0  0  0  0  0  0  0  0  0  0  0
    3.6332   -0.9173    0.5056 H   0  0  0  0  0  0  0  0  0  0  0  0
    2.9525    1.6494    1.3338 H   0  0  0  0  0  0  0  0  0  0  0  0
  1  2  1  0
  2  3  1  0
  3  4  2  3
  3  5  1  0
  5  6  1  0
  6  7  2  0
  6  8  1  0
  8  9  2  0
  9 10  1  0
 10 11  1  0
 10 12  1  0
 12 13  1  0
  8  2  1  0
  1 14  1  0
  1 15  1  0
  1 16  1  0
  4 17  1  0
  5 18  1  0
  9 19  1  0
 10 20  1  1
 11 21  1  0
 12 22  1  0
 12 23  1  0
 13 24  1  0
M  END
$$$$

     RDKit          3D

 24 24  0  0  0  0  0  0  0  0999 V2000
   -0.7309   -0.7999   -1.3950 C   0  0  0  0  0  0  0  0  0  0  0  0
   -1.2064   -0.0297   -0.2800 N   0  0  0  0  0  0  0  0  0  0  0  0
   -2.5411    0.5311   -0.1267 C   0  0  0  0  0  0  0  0  0  0  0  0
   -3.4816    0.3971   -0.9708 N   0  0  0  0  0  0  0  0  0  0  0  0
   -2.6249    1.2345    1.0987 N   0  0  0  0  0  0  0  0  0  0  0  0
   -1.3790    1.1519    1.7588 C   0  0  0  0  0  0  0  0  0  0  0  0
   -1.0283    1.6339    2.8637 O   0  0  0  0  0  0  0  0  0  0  0  0
   -0.4862    0.3442    0.8705 C   0  0  0  0  0  0  0  0  0  0  0  0
    0.7592    0.0329    1.1515 C   0  0  0  0  0  0  0  0  0  0  0  0
    1.6149   -0.7628    0.3112 C   0  0  1  0  0  0  0  0  0  0  0  0
    1.2798   -2.0280   -0.0674 O   0  0  0  0  0  0  0  0  0  0  0  0
    2.6114   -0.0255   -0.5322 C   0  0  0  0  0  0  0  0  0  0  0  0
    2.8720    1.2614   -0.0040 O   0  0  0  0  0  0  0  0  0  0  0  0
    0.1803   -0.4960   -1.8799 H   0  0  0  0  0  0  0  0  0  0  0  0
   -0.9860   -1.8790   -1.3662 H   0  0  0  0  0  0  0  0  0  0  0  0
   -1.4692   -0.4971   -2.2336 H   0  0  0  0  0  0  0  0  0  0  0  0
   -3.3860   -0.1279   -1.8540 H   0  0  0  0  0  0  0  0  0  0  0  0
   -3.4533    1.7419    1.4830 H   0  0  0  0  0  0  0  0  0  0  0  0
    1.1113    0.4620    2.1348 H   0  0  0  0  0  0  0  0  0  0  0  0
    2.3756   -1.1316    1.1370 H   0  0  0  0  0  0  0  0  0  0  0  0
    0.8400   -2.4791    0.6695 H   0  0  0  0  0  0  0  0  0  0  0  0
    2.3736    0.1493   -1.5732 H   0  0  0  0  0  0  0  0  0  0  0  0
    3.5735   -0.5676   -0.4824 H   0  0  0  0  0  0  0  0  0  0  0  0
    3.1812    1.8839   -0.7133 H   0  0  0  0  0  0  0  0  0  0  0  0
  1  2  1  0
  2  3  1  0
  3  4  2  3
  3  5  1  0
  5  6  1  0
  6  7  2  0
  6  8  1  0
  8  9  2  0
  9 10  1  0
 10 11  1  0
 10 12  1  0
 12 13  1  0
  8  2  1  0
  1 14  1  0
  1 15  1  0
  1 16  1  0
  4 17  1  0
  5 18  1  0
  9 19  1  0
 10 20  1  1
 11 21  1  0
 12 22  1  0
 12 23  1  0
 13 24  1  0
M  END
$$$$

     RDKit          3D

 24 24  0  0  0  0  0  0  0  0999 V2000
    0.7261   -0.5577   -1.6646 C   0  0  0  0  0  0  0  0  0  0  0  0
    1.3444   -0.1631   -0.4319 N   0  0  0  0  0  0  0  0  0  0  0  0
    2.7601   -0.0277   -0.1614 C   0  0  0  0  0  0  0  0  0  0  0  0
    3.6954   -0.2395   -1.0203 N   0  0  0  0  0  0  0  0  0  0  0  0
    2.9274    0.3773    1.1917 N   0  0  0  0  0  0  0  0  0  0  0  0
    1.6595    0.5079    1.8030 C   0  0  0  0  0  0  0  0  0  0  0  0
    1.4556    0.8491    2.9888 O   0  0  0  0  0  0  0  0  0  0  0  0
    0.6801    0.1603    0.7522 C   0  0  0  0  0  0  0  0  0  0  0  0
   -0.6008    0.1806    0.9524 C   0  0  0  0  0  0  0  0  0  0  0  0
   -1.6033   -0.1360   -0.0437 C   0  0  1  0  0  0  0  0  0  0  0  0
   -2.0512   -1.4780    0.0812 O   0  0  0  0  0  0  0  0  0  0  0  0
   -2.8883    0.6235    0.4131 C   0  0  0  0  0  0  0  0  0  0  0  0
   -3.9482    0.3241   -0.4022 O   0  0  0  0  0  0  0  0  0  0  0  0
    1.5734   -1.0366   -2.2614 H   0  0  0  0  0  0  0  0  0  0  0  0
    0.4505    0.2640   -2.3423 H   0  0  0  0  0  0  0  0  0  0  0  0
    0.0522   -1.4215   -1.6234 H   0  0  0  0  0  0  0  0  0  0  0  0
    3.4653   -0.5264   -1.9778 H   0  0  0  0  0  0  0  0  0  0  0  0
    3.8700    0.5408    1.6219 H   0  0  0  0  0  0  0  0  0  0  0  0
   -0.9663    0.4563    1.9677 H   0  0  0  0  0  0  0  0  0  0  0  0
   -1.5163    0.2247   -1.0472 H   0  0  0  0  0  0  0  0  0  0  0  0
   -1.3233   -1.9430    0.5725 H   0  0  0  0  0  0  0  0  0  0  0  0
   -3.1266    0.3634    1.4407 H   0  0  0  0  0  0  0  0  0  0  0  0
   -2.7064    1.7129    0.3705 H   0  0  0  0  0  0  0  0  0  0  0  0
   -3.9294    0.9446   -1.1795 H   0  0  0  0  0  0  0  0  0  0  0  0
  1  2  1  0
  2  3  1  0
  3  4  2  3
  3  5  1  0
  5  6  1  0
  6  7  2  0
  6  8  1  0
  8  9  2  0
  9 10  1  0
 10 11  1  0
 10 12  1  0
 12 13  1  0
  8  2  1  0
  1 14  1  0
  1 15  1  0
  1 16  1  0
  4 17  1  0
  5 18  1  0
  9 19  1  0
 10 20  1  6
 11 21  1  0
 12 22  1  0
 12 23  1  0
 13 24  1  0
M  END
$$$$

     RDKit          3D

 24 24  0  0  0  0  0  0  0  0999 V2000
   -0.8650    1.1620   -1.2246 C   0  0  0  0  0  0  0  0  0  0  0  0
   -1.3411    0.1937   -0.2754 N   0  0  0  0  0  0  0  0  0  0  0  0
   -2.6954   -0.2877   -0.1428 C   0  0  0  0  0  0  0  0  0  0  0  0
   -3.6553    0.1166   -0.8798 N   0  0  0  0  0  0  0  0  0  0  0  0
   -2.7710   -1.2422    0.9039 N   0  0  0  0  0  0  0  0  0  0  0  0
   -1.4593   -1.3679    1.4392 C   0  0  0  0  0  0  0  0  0  0  0  0
   -1.0618   -2.1002    2.3791 O   0  0  0  0  0  0  0  0  0  0  0  0
   -0.5547   -0.4649    0.6996 C   0  0  0  0  0  0  0  0  0  0  0  0
    0.7285   -0.2854    0.8960 C   0  0  0  0  0  0  0  0  0  0  0  0
    1.5947    0.6061    0.1735 C   0  0  1  0  0  0  0  0  0  0  0  0
    2.6295    0.9632    1.1277 O   0  0  0  0  0  0  0  0  0  0  0  0
    2.4756   -0.1256   -0.8611 C   0  0  0  0  0  0  0  0  0  0  0  0
    3.0987   -1.2049   -0.2153 O   0  0  0  0  0  0  0  0  0  0  0  0
   -0.8272    2.2042   -0.8398 H   0  0  0  0  0  0  0  0  0  0  0  0
   -1.7043    1.2570   -1.9991 H   0  0  0  0  0  0  0  0  0  0  0  0
   -0.0370    0.8511   -1.8618 H   0  0  0  0  0  0  0  0  0  0  0  0
   -3.6227    0.8118   -1.6449 H   0  0  0  0  0  0  0  0  0  0  0  0
   -3.5893   -1.7744    1.2540 H   0  0  0  0  0  0  0  0  0  0  0  0
    1.1595   -0.9052    1.7096 H   0  0  0  0  0  0  0  0  0  0  0  0
    1.2842    1.5874   -0.1204 H   0  0  0  0  0  0  0  0  0  0  0  0
    2.2509    0.9558    2.0314 H   0  0  0  0  0  0  0  0  0  0  0  0
    3.2435    0.5509   -1.2312 H   0  0  0  0  0  0  0  0  0  0  0  0
    1.8285   -0.5791   -1.6259 H   0  0  0  0  0  0  0  0  0  0  0  0
    3.8905   -0.9221    0.3081 H   0  0  0  0  0  0  0  0  0  0  0  0
  1  2  1  0
  2  3  1  0
  3  4  2  3
  3  5  1  0
  5  6  1  0
  6  7  2  0
  6  8  1  0
  8  9  2  0
  9 10  1  0
 10 11  1  0
 10 12  1  0
 12 13  1  0
  8  2  1  0
  1 14  1  0
  1 15  1  0
  1 16  1  0
  4 17  1  0
  5 18  1  0
  9 19  1  0
 10 20  1  6
 11 21  1  0
 12 22  1  0
 12 23  1  0
 13 24  1  0
M  END
$$$$

     RDKit          3D

 24 24  0  0  0  0  0  0  0  0999 V2000
    0.9619   -1.7067    0.0933 C   0  0  0  0  0  0  0  0  0  0  0  0
    1.3713   -0.3519   -0.0872 N   0  0  0  0  0  0  0  0  0  0  0  0
    2.7133    0.1677   -0.0879 C   0  0  0  0  0  0  0  0  0  0  0  0
    3.7569   -0.5477    0.0919 N   0  0  0  0  0  0  0  0  0  0  0  0
    2.7186    1.5527   -0.3030 N   0  0  0  0  0  0  0  0  0  0  0  0
    1.3873    1.9634   -0.4457 C   0  0  0  0  0  0  0  0  0  0  0  0
    0.9469    3.1330   -0.6538 O   0  0  0  0  0  0  0  0  0  0  0  0
    0.5293    0.7594   -0.3093 C   0  0  0  0  0  0  0  0  0  0  0  0
   -0.7895    0.7469   -0.3745 C   0  0  0  0  0  0  0  0  0  0  0  0
   -1.5963   -0.4516   -0.2215 C   0  0  1  0  0  0  0  0  0  0  0  0
   -1.5849   -1.0503    1.0247 O   0  0  0  0  0  0  0  0  0  0  0  0
   -3.0696    0.0817   -0.2200 C   0  0  0  0  0  0  0  0  0  0  0  0
   -3.2280    0.9586    0.8472 O   0  0  0  0  0  0  0  0  0  0  0  0
    0.2633   -2.1372   -0.6077 H   0  0  0  0  0  0  0  0  0  0  0  0
    0.8860   -2.0317    1.1532 H   0  0  0  0  0  0  0  0  0  0  0  0
    1.9046   -2.3113   -0.1999 H   0  0  0  0  0  0  0  0  0  0  0  0
    3.6768   -1.5613    0.2506 H   0  0  0  0  0  0  0  0  0  0  0  0
    3.5560    2.1686   -0.3491 H   0  0  0  0  0  0  0  0  0  0  0  0
   -1.2414    1.7498   -0.5614 H   0  0  0  0  0  0  0  0  0  0  0  0
   -1.6794   -1.1262   -1.0881 H   0  0  0  0  0  0  0  0  0  0  0  0
   -1.2262   -0.3834    1.6608 H   0  0  0  0  0  0  0  0  0  0  0  0
   -3.7655   -0.7784   -0.1805 H   0  0  0  0  0  0  0  0  0  0  0  0
   -3.2533    0.6497   -1.1496 H   0  0  0  0  0  0  0  0  0  0  0  0
   -3.2380    0.5062    1.7174 H   0  0  0  0  0  0  0  0  0  0  0  0
  1  2  1  0
  2  3  1  0
  3  4  2  3
  3  5  1  0
  5  6  1  0
  6  7  2  0
  6  8  1  0
  8  9  2  0
  9 10  1  0
 10 11  1  0
 10 12  1  0
 12 13  1  0
  8  2  1  0
  1 14  1  0
  1 15  1  0
  1 16  1  0
  4 17  1  0
  5 18  1  0
  9 19  1  0
 10 20  1  6
 11 21  1  0
 12 22  1  0
 12 23  1  0
 13 24  1  0
M  END
$$$$

     RDKit          3D

 24 24  0  0  0  0  0  0  0  0999 V2000
   -1.0118   -1.5896   -0.2043 C   0  0  0  0  0  0  0  0  0  0  0  0
   -1.3731   -0.2087   -0.0554 N   0  0  0  0  0  0  0  0  0  0  0  0
   -2.7038    0.3147    0.1736 C   0  0  0  0  0  0  0  0  0  0  0  0
   -3.7470   -0.3960    0.2697 N   0  0  0  0  0  0  0  0  0  0  0  0
   -2.6484    1.7287    0.2682 N   0  0  0  0  0  0  0  0  0  0  0  0
   -1.3114    2.1391    0.1057 C   0  0  0  0  0  0  0  0  0  0  0  0
   -0.8820    3.2961    0.1280 O   0  0  0  0  0  0  0  0  0  0  0  0
   -0.4975    0.9021   -0.1011 C   0  0  0  0  0  0  0  0  0  0  0  0
    0.8028    0.8880   -0.2947 C   0  0  0  0  0  0  0  0  0  0  0  0
    1.5652   -0.3427   -0.5015 C   0  0  1  0  0  0  0  0  0  0  0  0
    2.6577    0.1320   -1.3425 O   0  0  0  0  0  0  0  0  0  0  0  0
    2.3453   -0.7923    0.7133 C   0  0  0  0  0  0  0  0  0  0  0  0
    3.0668    0.2587    1.2778 O   0  0  0  0  0  0  0  0  0  0  0  0
   -0.9856   -1.9434   -1.2558 H   0  0  0  0  0  0  0  0  0  0  0  0
   -1.9309   -2.1741    0.1621 H   0  0  0  0  0  0  0  0  0  0  0  0
   -0.2567   -1.9798    0.4684 H   0  0  0  0  0  0  0  0  0  0  0  0
   -3.7903   -1.4268    0.1991 H   0  0  0  0  0  0  0  0  0  0  0  0
   -3.4419    2.3781    0.4293 H   0  0  0  0  0  0  0  0  0  0  0  0
    1.2893    1.8871   -0.2870 H   0  0  0  0  0  0  0  0  0  0  0  0
    1.1736   -1.1070   -1.1394 H   0  0  0  0  0  0  0  0  0  0  0  0
    3.0089    0.9027   -0.8268 H   0  0  0  0  0  0  0  0  0  0  0  0
    1.7191   -1.2282    1.5071 H   0  0  0  0  0  0  0  0  0  0  0  0
    3.0462   -1.5838    0.3791 H   0  0  0  0  0  0  0  0  0  0  0  0
    3.9055   -0.0548    1.7073 H   0  0  0  0  0  0  0  0  0  0  0  0
  1  2  1  0
  2  3  1  0
  3  4  2  3
  3  5  1  0
  5  6  1  0
  6  7  2  0
  6  8  1  0
  8  9  2  0
  9 10  1  0
 10 11  1  0
 10 12  1  0
 12 13  1  0
  8  2  1  0
  1 14  1  0
  1 15  1  0
  1 16  1  0
  4 17  1  0
  5 18  1  0
  9 19  1  0
 10 20  1  6
 11 21  1  0
 12 22  1  0
 12 23  1  0
 13 24  1  0
M  END
$$$$

     RDKit          3D

 24 24  0  0  0  0  0  0  0  0999 V2000
   -0.7780   -1.4118    0.5529 C   0  0  0  0  0  0  0  0  0  0  0  0
   -1.2744   -0.1241    0.1928 N   0  0  0  0  0  0  0  0  0  0  0  0
   -2.6644    0.2652    0.1175 C   0  0  0  0  0  0  0  0  0  0  0  0
   -3.6255   -0.5314    0.3907 N   0  0  0  0  0  0  0  0  0  0  0  0
   -2.7660    1.6186   -0.2862 N   0  0  0  0  0  0  0  0  0  0  0  0
   -1.4446    2.0949   -0.4683 C   0  0  0  0  0  0  0  0  0  0  0  0
   -1.1148    3.2437   -0.8234 O   0  0  0  0  0  0  0  0  0  0  0  0
   -0.4985    0.9969   -0.1660 C   0  0  0  0  0  0  0  0  0  0  0  0
    0.8109    1.0553   -0.2037 C   0  0  0  0  0  0  0  0  0  0  0  0
    1.7263   -0.0127    0.1157 C   0  0  1  0  0  0  0  0  0  0  0  0
    1.7208   -0.6191    1.3392 O   0  0  0  0  0  0  0  0  0  0  0  0
    2.3336   -0.7552   -1.0322 C   0  0  0  0  0  0  0  0  0  0  0  0
    3.6635   -1.0421   -0.7417 O   0  0  0  0  0  0  0  0  0  0  0  0
   -0.0566   -1.8919   -0.0808 H   0  0  0  0  0  0  0  0  0  0  0  0
   -1.6797   -2.1131    0.3516 H   0  0  0  0  0  0  0  0  0  0  0  0
   -0.6978   -1.5891    1.6563 H   0  0  0  0  0  0  0  0  0  0  0  0
   -3.5615   -1.5185    0.6902 H   0  0  0  0  0  0  0  0  0  0  0  0
   -3.6617    2.1332   -0.4144 H   0  0  0  0  0  0  0  0  0  0  0  0
    1.1792    2.0635   -0.5316 H   0  0  0  0  0  0  0  0  0  0  0  0
    2.6697    0.6446    0.3654 H   0  0  0  0  0  0  0  0  0  0  0  0
    1.5708    0.0294    2.0388 H   0  0  0  0  0  0  0  0  0  0  0  0
    2.3847    0.0037   -1.8743 H   0  0  0  0  0  0  0  0  0  0  0  0
    1.8584   -1.6479   -1.3863 H   0  0  0  0  0  0  0  0  0  0  0  0
    3.9057   -0.8922    0.1978 H   0  0  0  0  0  0  0  0  0  0  0  0
  1  2  1  0
  2  3  1  0
  3  4  2  3
  3  5  1  0
  5  6  1  0
  6  7  2  0
  6  8  1  0
  8  9  2  0
  9 10  1  0
 10 11  1  0
 10 12  1  0
 12 13  1  0
  8  2  1  0
  1 14  1  0
  1 15  1  0
  1 16  1  0
  4 17  1  0
  5 18  1  0
  9 19  1  0
 10 20  1  1
 11 21  1  0
 12 22  1  0
 12 23  1  0
 13 24  1  0
M  END
$$$$

     RDKit          3D

 24 24  0  0  0  0  0  0  0  0999 V2000
    0.5721   -1.5731    0.6189 C   0  0  0  0  0  0  0  0  0  0  0  0
    1.1468   -0.4109    0.0006 N   0  0  0  0  0  0  0  0  0  0  0  0
    2.5531   -0.0787   -0.0818 C   0  0  0  0  0  0  0  0  0  0  0  0
    3.5148   -0.7889    0.3896 N   0  0  0  0  0  0  0  0  0  0  0  0
    2.7099    1.1485   -0.7611 N   0  0  0  0  0  0  0  0  0  0  0  0
    1.4396    1.6391   -1.1320 C   0  0  0  0  0  0  0  0  0  0  0  0
    1.1935    2.7013   -1.7482 O   0  0  0  0  0  0  0  0  0  0  0  0
    0.4439    0.6297   -0.6381 C   0  0  0  0  0  0  0  0  0  0  0  0
   -0.8576    0.7467   -0.8129 C   0  0  0  0  0  0  0  0  0  0  0  0
   -1.8110   -0.2283   -0.3521 C   0  0  1  0  0  0  0  0  0  0  0  0
   -1.7588   -1.5252   -0.7667 O   0  0  0  0  0  0  0  0  0  0  0  0
   -2.5689    0.0755    0.9143 C   0  0  0  0  0  0  0  0  0  0  0  0
   -2.4590    1.4743    1.0943 O   0  0  0  0  0  0  0  0  0  0  0  0
   -0.1986   -1.4393    1.3472 H   0  0  0  0  0  0  0  0  0  0  0  0
    0.5638   -2.4788   -0.0204 H   0  0  0  0  0  0  0  0  0  0  0  0
    1.4206   -1.9117    1.3380 H   0  0  0  0  0  0  0  0  0  0  0  0
    4.5138   -0.5322    0.3194 H   0  0  0  0  0  0  0  0  0  0  0  0
    3.5983    1.6744   -0.9909 H   0  0  0  0  0  0  0  0  0  0  0  0
   -1.1659    1.6777   -1.3476 H   0  0  0  0  0  0  0  0  0  0  0  0
   -2.6902    0.0519   -1.0935 H   0  0  0  0  0  0  0  0  0  0  0  0
   -2.5981   -1.9988   -0.7134 H   0  0  0  0  0  0  0  0  0  0  0  0
   -2.1827   -0.3689    1.8287 H   0  0  0  0  0  0  0  0  0  0  0  0
   -3.6490   -0.1630    0.8818 H   0  0  0  0  0  0  0  0  0  0  0  0
   -1.7304    1.6784    1.7260 H   0  0  0  0  0  0  0  0  0  0  0  0
  1  2  1  0
  2  3  1  0
  3  4  2  3
  3  5  1  0
  5  6  1  0
  6  7  2  0
  6  8  1  0
  8  9  2  0
  9 10  1  0
 10 11  1  0
 10 12  1  0
 12 13  1  0
  8  2  1  0
  1 14  1  0
  1 15  1  0
  1 16  1  0
  4 17  1  0
  5 18  1  0
  9 19  1  0
 10 20  1  6
 11 21  1  0
 12 22  1  0
 12 23  1  0
 13 24  1  0
M  END
$$$$
