
     RDKit          3D

 26 25  0  0  0  0  0  0  0  0999 V2000
    4.3471    0.7713    1.1707 C   0  0  0  0  0  0  0  0  0  0  0  0
    3.1128   -0.0840    0.9324 C   0  0  0  0  0  0  0  0  0  0  0  0
    2.3344    0.4221   -0.1340 O   0  0  0  0  0  0  0  0  0  0  0  0
    1.1727   -0.2431   -0.4632 C   0  0  0  0  0  0  0  0  0  0  0  0
    0.8320   -1.2699    0.1800 O   0  0  0  0  0  0  0  0  0  0  0  0
    0.2908    0.2033   -1.5579 C   0  0  0  0  0  0  0  0  0  0  0  0
   -0.9419   -0.6708   -1.6563 C   0  0  1  0  0  0  0  0  0  0  0  0
   -0.5404   -1.9708   -1.9026 O   0  0  0  0  0  0  0  0  0  0  0  0
   -1.7534   -0.5770   -0.4173 C   0  0  0  0  0  0  0  0  0  0  0  0
   -2.0264   -1.5967    0.2505 O   0  0  0  0  0  0  0  0  0  0  0  0
   -2.2265    0.6809    0.0192 N   0  0  0  0  0  0  0  0  0  0  0  0
   -2.9564    0.8616    1.1169 O   0  0  0  0  0  0  0  0  0  0  0  0
   -4.2140    0.3008    1.0975 C   0  0  0  0  0  0  0  0  0  0  0  0
    4.8088    1.0979    0.2198 H   0  0  0  0  0  0  0  0  0  0  0  0
    5.0309    0.1758    1.8057 H   0  0  0  0  0  0  0  0  0  0  0  0
    4.0489    1.6730    1.7455 H   0  0  0  0  0  0  0  0  0  0  0  0
    2.5363   -0.1420    1.8656 H   0  0  0  0  0  0  0  0  0  0  0  0
    3.5173   -1.0978    0.6429 H   0  0  0  0  0  0  0  0  0  0  0  0
    0.8637    0.0848   -2.5016 H   0  0  0  0  0  0  0  0  0  0  0  0
    0.0051    1.2745   -1.3905 H   0  0  0  0  0  0  0  0  0  0  0  0
   -1.5753   -0.3616   -2.5298 H   0  0  0  0  0  0  0  0  0  0  0  0
   -0.9362   -2.5567   -1.1999 H   0  0  0  0  0  0  0  0  0  0  0  0
   -1.9740    1.5145   -0.5763 H   0  0  0  0  0  0  0  0  0  0  0  0
   -5.0216    1.0767    1.1317 H   0  0  0  0  0  0  0  0  0  0  0  0
   -4.3322   -0.2691    0.1784 H   0  0  0  0  0  0  0  0  0  0  0  0
   -4.4025   -0.3661    1.9725 H   0  0  0  0  0  0  0  0  0  0  0  0
  1  2  1  0
  2  3  1  0
  3  4  1  0
  4  5  2  0
  4  6  1  0
  6  7  1  0
  7  8  1  0
  7  9  1  0
  9 10  2  0
  9 11  1  0
 11 12  1  0
 12 13  1  0
  1 14  1  0
  1 15  1  0
  1 16  1  0
  2 17  1  0
  2 18  1  0
  6 19  1  0
  6 20  1  0
  7 21  1  6
  8 22  1  0
 11 23  1  0
 13 24  1  0
 13 25  1  0
 13 26  1  0
M  END
$$$$

     RDKit          3D

 26 25  0  0  0  0  0  0  0  0999 V2000
    4.1324   -0.0344    0.2523 C   0  0  0  0  0  0  0  0  0  0  0  0
    3.3431   -0.8676    1.2505 C   0  0  0  0  0  0  0  0  0  0  0  0
    1.9791   -0.8659    0.9809 O   0  0  0  0  0  0  0  0  0  0  0  0
    1.2141    0.2852    0.9521 C   0  0  0  0  0  0  0  0  0  0  0  0
    1.7437    1.3805    1.1761 O   0  0  0  0  0  0  0  0  0  0  0  0
   -0.2391    0.0808    0.6403 C   0  0  0  0  0  0  0  0  0  0  0  0
   -0.3318    0.0992   -0.8636 C   0  0  1  0  0  0  0  0  0  0  0  0
    0.4669   -0.9134   -1.4115 O   0  0  0  0  0  0  0  0  0  0  0  0
   -1.7067   -0.0677   -1.3684 C   0  0  0  0  0  0  0  0  0  0  0  0
   -1.9351   -0.8891   -2.2944 O   0  0  0  0  0  0  0  0  0  0  0  0
   -2.7588    0.6936   -0.8032 N   0  0  0  0  0  0  0  0  0  0  0  0
   -4.0336    0.5221   -1.2749 O   0  0  0  0  0  0  0  0  0  0  0  0
   -4.7630   -0.0371   -0.2043 C   0  0  0  0  0  0  0  0  0  0  0  0
    3.4136    0.5112   -0.3790 H   0  0  0  0  0  0  0  0  0  0  0  0
    4.8133   -0.6395   -0.3793 H   0  0  0  0  0  0  0  0  0  0  0  0
    4.7454    0.7440    0.7891 H   0  0  0  0  0  0  0  0  0  0  0  0
    3.6800   -1.9348    1.0715 H   0  0  0  0  0  0  0  0  0  0  0  0
    3.6117   -0.6280    2.3007 H   0  0  0  0  0  0  0  0  0  0  0  0
   -0.8643    0.8452    1.1223 H   0  0  0  0  0  0  0  0  0  0  0  0
   -0.5367   -0.9038    1.0341 H   0  0  0  0  0  0  0  0  0  0  0  0
    0.0095    1.1046   -1.2509 H   0  0  0  0  0  0  0  0  0  0  0  0
    1.4194   -0.6499   -1.4956 H   0  0  0  0  0  0  0  0  0  0  0  0
   -2.5751    1.3953   -0.0250 H   0  0  0  0  0  0  0  0  0  0  0  0
   -4.3844    0.4284    0.7212 H   0  0  0  0  0  0  0  0  0  0  0  0
   -5.8171    0.2337   -0.3528 H   0  0  0  0  0  0  0  0  0  0  0  0
   -4.6265   -1.1392   -0.1881 H   0  0  0  0  0  0  0  0  0  0  0  0
  1  2  1  0
  2  3  1  0
  3  4  1  0
  4  5  2  0
  4  6  1  0
  6  7  1  0
  7  8  1  0
  7  9  1  0
  9 10  2  0
  9 11  1  0
 11 12  1  0
 12 13  1  0
  1 14  1  0
  1 15  1  0
  1 16  1  0
  2 17  1  0
  2 18  1  0
  6 19  1  0
  6 20  1  0
  7 21  1  6
  8 22  1  0
 11 23  1  0
 13 24  1  0
 13 25  1  0
 13 26  1  0
M  END
$$$$

     RDKit          3D

 26 25  0  0  0  0  0  0  0  0999 V2000
   -4.5597    0.3993    0.2341 C   0  0  0  0  0  0  0  0  0  0  0  0
   -3.8875   -0.6933   -0.5757 C   0  0  0  0  0  0  0  0  0  0  0  0
   -2.6304   -0.3378   -1.0697 O   0  0  0  0  0  0  0  0  0  0  0  0
   -1.5628   -0.0152   -0.2358 C   0  0  0  0  0  0  0  0  0  0  0  0
   -1.7761   -0.0628    1.0087 O   0  0  0  0  0  0  0  0  0  0  0  0
   -0.2562    0.3559   -0.8137 C   0  0  0  0  0  0  0  0  0  0  0  0
    0.7487    0.4981    0.3529 C   0  0  1  0  0  0  0  0  0  0  0  0
    0.7342   -0.7521    0.9608 O   0  0  0  0  0  0  0  0  0  0  0  0
    2.0992    0.6678   -0.2868 C   0  0  0  0  0  0  0  0  0  0  0  0
    2.4290    1.8066   -0.6764 O   0  0  0  0  0  0  0  0  0  0  0  0
    2.9251   -0.4747   -0.4109 N   0  0  0  0  0  0  0  0  0  0  0  0
    4.1393   -0.4371   -0.9610 O   0  0  0  0  0  0  0  0  0  0  0  0
    5.0767   -0.0024   -0.0538 C   0  0  0  0  0  0  0  0  0  0  0  0
   -4.5053    1.3886   -0.2328 H   0  0  0  0  0  0  0  0  0  0  0  0
   -4.0952    0.4463    1.2413 H   0  0  0  0  0  0  0  0  0  0  0  0
   -5.6249    0.0719    0.4127 H   0  0  0  0  0  0  0  0  0  0  0  0
   -3.8577   -1.5947    0.1182 H   0  0  0  0  0  0  0  0  0  0  0  0
   -4.5682   -0.9750   -1.4093 H   0  0  0  0  0  0  0  0  0  0  0  0
    0.1582   -0.4225   -1.4760 H   0  0  0  0  0  0  0  0  0  0  0  0
   -0.3289    1.3281   -1.3613 H   0  0  0  0  0  0  0  0  0  0  0  0
    0.4421    1.3327    0.9597 H   0  0  0  0  0  0  0  0  0  0  0  0
    0.2469   -1.4128    0.4362 H   0  0  0  0  0  0  0  0  0  0  0  0
    2.5590   -1.4066   -0.0638 H   0  0  0  0  0  0  0  0  0  0  0  0
    4.7188   -0.0271    0.9890 H   0  0  0  0  0  0  0  0  0  0  0  0
    5.9635   -0.7003   -0.1201 H   0  0  0  0  0  0  0  0  0  0  0  0
    5.4121    1.0185   -0.3512 H   0  0  0  0  0  0  0  0  0  0  0  0
  1  2  1  0
  2  3  1  0
  3  4  1  0
  4  5  2  0
  4  6  1  0
  6  7  1  0
  7  8  1  0
  7  9  1  0
  9 10  2  0
  9 11  1  0
 11 12  1  0
 12 13  1  0
  1 14  1  0
  1 15  1  0
  1 16  1  0
  2 17  1  0
  2 18  1  0
  6 19  1  0
  6 20  1  0
  7 21  1  1
  8 22  1  0
 11 23  1  0
 13 24  1  0
 13 25  1  0
 13 26  1  0
M  END
$$$$

     RDKit          3D

 26 25  0  0  0  0  0  0  0  0999 V2000
    4.4883    1.5575    0.0458 C   0  0  0  0  0  0  0  0  0  0  0  0
    3.6943    0.2844   -0.2554 C   0  0  0  0  0  0  0  0  0  0  0  0
    2.3374    0.5125    0.0479 O   0  0  0  0  0  0  0  0  0  0  0  0
    1.3965   -0.4680   -0.1598 C   0  0  0  0  0  0  0  0  0  0  0  0
    1.7781   -1.5569   -0.6234 O   0  0  0  0  0  0  0  0  0  0  0  0
   -0.0266   -0.2804    0.1411 C   0  0  0  0  0  0  0  0  0  0  0  0
   -0.8278   -1.4767   -0.2511 C   0  0  1  0  0  0  0  0  0  0  0  0
   -0.3915   -2.6150    0.4139 O   0  0  0  0  0  0  0  0  0  0  0  0
   -2.2996   -1.2839   -0.0533 C   0  0  0  0  0  0  0  0  0  0  0  0
   -2.9983   -2.1106    0.5766 O   0  0  0  0  0  0  0  0  0  0  0  0
   -2.8844   -0.1243   -0.6046 N   0  0  0  0  0  0  0  0  0  0  0  0
   -4.2201    0.0509   -0.4302 O   0  0  0  0  0  0  0  0  0  0  0  0
   -4.4732    1.1475    0.3908 C   0  0  0  0  0  0  0  0  0  0  0  0
    4.5447    1.7569    1.1155 H   0  0  0  0  0  0  0  0  0  0  0  0
    3.9312    2.3741   -0.4917 H   0  0  0  0  0  0  0  0  0  0  0  0
    5.5025    1.4367   -0.3862 H   0  0  0  0  0  0  0  0  0  0  0  0
    3.8409    0.0634   -1.3281 H   0  0  0  0  0  0  0  0  0  0  0  0
    4.1005   -0.5716    0.3270 H   0  0  0  0  0  0  0  0  0  0  0  0
   -0.0985   -0.1151    1.2543 H   0  0  0  0  0  0  0  0  0  0  0  0
   -0.3772    0.6511   -0.3402 H   0  0  0  0  0  0  0  0  0  0  0  0
   -0.6607   -1.6613   -1.3362 H   0  0  0  0  0  0  0  0  0  0  0  0
   -0.4276   -2.4847    1.3869 H   0  0  0  0  0  0  0  0  0  0  0  0
   -2.3137    0.5712   -1.1281 H   0  0  0  0  0  0  0  0  0  0  0  0
   -3.6415    1.2561    1.1101 H   0  0  0  0  0  0  0  0  0  0  0  0
   -4.5058    2.0740   -0.2312 H   0  0  0  0  0  0  0  0  0  0  0  0
   -5.4679    1.0120    0.8997 H   0  0  0  0  0  0  0  0  0  0  0  0
  1  2  1  0
  2  3  1  0
  3  4  1  0
  4  5  2  0
  4  6  1  0
  6  7  1  0
  7  8  1  0
  7  9  1  0
  9 10  2  0
  9 11  1  0
 11 12  1  0
 12 13  1  0
  1 14  1  0
  1 15  1  0
  1 16  1  0
  2 17  1  0
  2 18  1  0
  6 19  1  0
  6 20  1  0
  7 21  1  6
  8 22  1  0
 11 23  1  0
 13 24  1  0
 13 25  1  0
 13 26  1  0
M  END
$$$$

     RDKit          3D

 26 25  0  0  0  0  0  0  0  0999 V2000
   -3.8191    1.4419   -0.0286 C   0  0  0  0  0  0  0  0  0  0  0  0
   -3.8897   -0.0299    0.2034 C   0  0  0  0  0  0  0  0  0  0  0  0
   -2.7212   -0.6436    0.6336 O   0  0  0  0  0  0  0  0  0  0  0  0
   -1.5094   -0.7162    0.0078 C   0  0  0  0  0  0  0  0  0  0  0  0
   -1.4538   -0.1408   -1.1258 O   0  0  0  0  0  0  0  0  0  0  0  0
   -0.3120   -1.3804    0.5170 C   0  0  0  0  0  0  0  0  0  0  0  0
    0.7721   -0.4521    1.0034 C   0  0  1  0  0  0  0  0  0  0  0  0
    1.8297   -1.2622    1.4670 O   0  0  0  0  0  0  0  0  0  0  0  0
    1.3710    0.3492   -0.1072 C   0  0  0  0  0  0  0  0  0  0  0  0
    0.7243    1.2011   -0.7527 O   0  0  0  0  0  0  0  0  0  0  0  0
    2.7509    0.1689   -0.4901 N   0  0  0  0  0  0  0  0  0  0  0  0
    3.2499    0.9132   -1.4973 O   0  0  0  0  0  0  0  0  0  0  0  0
    4.3581    1.5879   -0.9715 C   0  0  0  0  0  0  0  0  0  0  0  0
   -4.8003    1.8927    0.3098 H   0  0  0  0  0  0  0  0  0  0  0  0
   -3.7692    1.7125   -1.1152 H   0  0  0  0  0  0  0  0  0  0  0  0
   -3.0396    1.9721    0.5538 H   0  0  0  0  0  0  0  0  0  0  0  0
   -4.6778   -0.2515    0.9823 H   0  0  0  0  0  0  0  0  0  0  0  0
   -4.3286   -0.4775   -0.7348 H   0  0  0  0  0  0  0  0  0  0  0  0
    0.1311   -1.9833   -0.3307 H   0  0  0  0  0  0  0  0  0  0  0  0
   -0.5443   -2.1579    1.2940 H   0  0  0  0  0  0  0  0  0  0  0  0
    0.4189    0.2413    1.7767 H   0  0  0  0  0  0  0  0  0  0  0  0
    1.9534   -1.9942    0.7872 H   0  0  0  0  0  0  0  0  0  0  0  0
    3.3233   -0.5249    0.0179 H   0  0  0  0  0  0  0  0  0  0  0  0
    4.8049    0.9557   -0.1527 H   0  0  0  0  0  0  0  0  0  0  0  0
    4.0523    2.5672   -0.5159 H   0  0  0  0  0  0  0  0  0  0  0  0
    5.1252    1.8071   -1.7314 H   0  0  0  0  0  0  0  0  0  0  0  0
  1  2  1  0
  2  3  1  0
  3  4  1  0
  4  5  2  0
  4  6  1  0
  6  7  1  0
  7  8  1  0
  7  9  1  0
  9 10  2  0
  9 11  1  0
 11 12  1  0
 12 13  1  0
  1 14  1  0
  1 15  1  0
  1 16  1  0
  2 17  1  0
  2 18  1  0
  6 19  1  0
  6 20  1  0
  7 21  1  1
  8 22  1  0
 11 23  1  0
 13 24  1  0
 13 25  1  0
 13 26  1  0
M  END
$$$$

     RDKit          3D

 26 25  0  0  0  0  0  0  0  0999 V2000
    4.5114    0.1178    0.6254 C   0  0  0  0  0  0  0  0  0  0  0  0
    3.8179   -0.7103   -0.4230 C   0  0  0  0  0  0  0  0  0  0  0  0
    2.4854   -0.9530   -0.0023 O   0  0  0  0  0  0  0  0  0  0  0  0
    1.5782    0.0601    0.2364 C   0  0  0  0  0  0  0  0  0  0  0  0
    1.9523    1.2446    0.0709 O   0  0  0  0  0  0  0  0  0  0  0  0
    0.1984   -0.2802    0.6761 C   0  0  0  0  0  0  0  0  0  0  0  0
   -0.7136    0.0427   -0.5048 C   0  0  1  0  0  0  0  0  0  0  0  0
   -0.3416   -0.7258   -1.6210 O   0  0  0  0  0  0  0  0  0  0  0  0
   -2.1343   -0.2559   -0.1588 C   0  0  0  0  0  0  0  0  0  0  0  0
   -2.7914   -1.0971   -0.8554 O   0  0  0  0  0  0  0  0  0  0  0  0
   -2.8148    0.3534    0.9244 N   0  0  0  0  0  0  0  0  0  0  0  0
   -4.1239    0.0502    1.2046 O   0  0  0  0  0  0  0  0  0  0  0  0
   -4.9036    0.7160    0.2317 C   0  0  0  0  0  0  0  0  0  0  0  0
    5.2910   -0.4348    1.1880 H   0  0  0  0  0  0  0  0  0  0  0  0
    4.9417    1.0303    0.1383 H   0  0  0  0  0  0  0  0  0  0  0  0
    3.7716    0.4869    1.3656 H   0  0  0  0  0  0  0  0  0  0  0  0
    3.8534   -0.2022   -1.4030 H   0  0  0  0  0  0  0  0  0  0  0  0
    4.2968   -1.7186   -0.5424 H   0  0  0  0  0  0  0  0  0  0  0  0
    0.1185   -1.3600    0.8822 H   0  0  0  0  0  0  0  0  0  0  0  0
   -0.1314    0.3752    1.5045 H   0  0  0  0  0  0  0  0  0  0  0  0
   -0.5574    1.1026   -0.7755 H   0  0  0  0  0  0  0  0  0  0  0  0
   -0.8561   -1.5690   -1.6619 H   0  0  0  0  0  0  0  0  0  0  0  0
   -2.3031    1.0480    1.5168 H   0  0  0  0  0  0  0  0  0  0  0  0
   -4.7368    0.1820   -0.7201 H   0  0  0  0  0  0  0  0  0  0  0  0
   -4.4413    1.7259    0.1044 H   0  0  0  0  0  0  0  0  0  0  0  0
   -5.9673    0.7711    0.5189 H   0  0  0  0  0  0  0  0  0  0  0  0
  1  2  1  0
  2  3  1  0
  3  4  1  0
  4  5  2  0
  4  6  1  0
  6  7  1  0
  7  8  1  0
  7  9  1  0
  9 10  2  0
  9 11  1  0
 11 12  1  0
 12 13  1  0
  1 14  1  0
  1 15  1  0
  1 16  1  0
  2 17  1  0
  2 18  1  0
  6 19  1  0
  6 20  1  0
  7 21  1  6
  8 22  1  0
 11 23  1  0
 13 24  1  0
 13 25  1  0
 13 26  1  0
M  END
$$$$

     RDKit          3D

 26 25  0  0  0  0  0  0  0  0999 V2000
   -4.2560   -0.7203   -1.1688 C   0  0  0  0  0  0  0  0  0  0  0  0
   -4.0264   -0.3340    0.2851 C   0  0  0  0  0  0  0  0  0  0  0  0
   -2.6852   -0.5466    0.6799 O   0  0  0  0  0  0  0  0  0  0  0  0
   -1.6109    0.0793    0.0750 C   0  0  0  0  0  0  0  0  0  0  0  0
   -1.8847    0.8789   -0.8774 O   0  0  0  0  0  0  0  0  0  0  0  0
   -0.2111   -0.1641    0.5096 C   0  0  0  0  0  0  0  0  0  0  0  0
    0.7105    0.6716   -0.3501 C   0  0  1  0  0  0  0  0  0  0  0  0
    0.3492    2.0014   -0.1586 O   0  0  0  0  0  0  0  0  0  0  0  0
    2.1290    0.5212    0.0408 C   0  0  0  0  0  0  0  0  0  0  0  0
    2.7750    1.4882    0.4568 O   0  0  0  0  0  0  0  0  0  0  0  0
    2.7809   -0.7292   -0.0508 N   0  0  0  0  0  0  0  0  0  0  0  0
    4.0304   -1.0194    0.2567 O   0  0  0  0  0  0  0  0  0  0  0  0
    4.8407   -0.0166    0.6836 C   0  0  0  0  0  0  0  0  0  0  0  0
   -4.5019    0.1776   -1.7681 H   0  0  0  0  0  0  0  0  0  0  0  0
   -3.3064   -1.1402   -1.5642 H   0  0  0  0  0  0  0  0  0  0  0  0
   -5.0361   -1.4943   -1.2849 H   0  0  0  0  0  0  0  0  0  0  0  0
   -4.6879   -0.9555    0.9093 H   0  0  0  0  0  0  0  0  0  0  0  0
   -4.3206    0.7324    0.4736 H   0  0  0  0  0  0  0  0  0  0  0  0
   -0.0549   -0.0233    1.5771 H   0  0  0  0  0  0  0  0  0  0  0  0
   -0.0115   -1.2456    0.2966 H   0  0  0  0  0  0  0  0  0  0  0  0
    0.5362    0.3653   -1.4044 H   0  0  0  0  0  0  0  0  0  0  0  0
    0.7793    2.2955    0.6833 H   0  0  0  0  0  0  0  0  0  0  0  0
    2.1895   -1.5299   -0.4108 H   0  0  0  0  0  0  0  0  0  0  0  0
    4.6383    0.3251    1.7298 H   0  0  0  0  0  0  0  0  0  0  0  0
    4.9480    0.8301   -0.0364 H   0  0  0  0  0  0  0  0  0  0  0  0
    5.8868   -0.4477    0.7355 H   0  0  0  0  0  0  0  0  0  0  0  0
  1  2  1  0
  2  3  1  0
  3  4  1  0
  4  5  2  0
  4  6  1  0
  6  7  1  0
  7  8  1  0
  7  9  1  0
  9 10  2  0
  9 11  1  0
 11 12  1  0
 12 13  1  0
  1 14  1  0
  1 15  1  0
  1 16  1  0
  2 17  1  0
  2 18  1  0
  6 19  1  0
  6 20  1  0
  7 21  1  6
  8 22  1  0
 11 23  1  0
 13 24  1  0
 13 25  1  0
 13 26  1  0
M  END
$$$$

     RDKit          3D

 26 25  0  0  0  0  0  0  0  0999 V2000
    4.9858   -0.4997   -0.4967 C   0  0  0  0  0  0  0  0  0  0  0  0
    3.8654   -0.0467    0.3942 C   0  0  0  0  0  0  0  0  0  0  0  0
    2.6340   -0.1053   -0.3047 O   0  0  0  0  0  0  0  0  0  0  0  0
    1.4701    0.2743    0.3493 C   0  0  0  0  0  0  0  0  0  0  0  0
    1.5677    0.6577    1.5509 O   0  0  0  0  0  0  0  0  0  0  0  0
    0.1618    0.2344   -0.3290 C   0  0  0  0  0  0  0  0  0  0  0  0
   -0.9194    0.7040    0.6270 C   0  0  1  0  0  0  0  0  0  0  0  0
   -0.5785    2.0028    0.9863 O   0  0  0  0  0  0  0  0  0  0  0  0
   -2.2531    0.7092    0.0176 C   0  0  0  0  0  0  0  0  0  0  0  0
   -2.8727    1.8201   -0.0989 O   0  0  0  0  0  0  0  0  0  0  0  0
   -2.9256   -0.4490   -0.4637 N   0  0  0  0  0  0  0  0  0  0  0  0
   -4.1459   -0.3180   -1.0023 O   0  0  0  0  0  0  0  0  0  0  0  0
   -5.1488   -1.0010   -0.3692 C   0  0  0  0  0  0  0  0  0  0  0  0
    4.7212   -1.4903   -0.8927 H   0  0  0  0  0  0  0  0  0  0  0  0
    5.9302   -0.5678    0.0840 H   0  0  0  0  0  0  0  0  0  0  0  0
    5.0836    0.2471   -1.3242 H   0  0  0  0  0  0  0  0  0  0  0  0
    4.0542    1.0288    0.6699 H   0  0  0  0  0  0  0  0  0  0  0  0
    3.8303   -0.6319    1.3439 H   0  0  0  0  0  0  0  0  0  0  0  0
    0.1308    0.7798   -1.2875 H   0  0  0  0  0  0  0  0  0  0  0  0
   -0.0446   -0.8364   -0.5598 H   0  0  0  0  0  0  0  0  0  0  0  0
   -0.8442    0.0643    1.5240 H   0  0  0  0  0  0  0  0  0  0  0  0
    0.0831    2.4111    0.3696 H   0  0  0  0  0  0  0  0  0  0  0  0
   -2.4346   -1.3631   -0.3765 H   0  0  0  0  0  0  0  0  0  0  0  0
   -4.8644   -2.0651   -0.3066 H   0  0  0  0  0  0  0  0  0  0  0  0
   -6.0534   -0.9441   -1.0197 H   0  0  0  0  0  0  0  0  0  0  0  0
   -5.4328   -0.6152    0.6126 H   0  0  0  0  0  0  0  0  0  0  0  0
  1  2  1  0
  2  3  1  0
  3  4  1  0
  4  5  2  0
  4  6  1  0
  6  7  1  0
  7  8  1  0
  7  9  1  0
  9 10  2  0
  9 11  1  0
 11 12  1  0
 12 13  1  0
  1 14  1  0
  1 15  1  0
  1 16  1  0
  2 17  1  0
  2 18  1  0
  6 19  1  0
  6 20  1  0
  7 21  1  1
  8 22  1  0
 11 23  1  0
 13 24  1  0
 13 25  1  0
 13 26  1  0
M  END
$$$$
