
     RDKit          3D

 22 22  0  0  0  0  0  0  0  0999 V2000
   -2.9850   -0.4139    1.3536 C   0  0  0  0  0  0  0  0  0  0  0  0
   -2.3383   -1.0160    0.1924 N   0  0  0  0  0  0  0  0  0  0  0  0
   -2.8137   -2.0614   -0.4379 N   0  0  0  0  0  0  0  0  0  0  0  0
   -2.0180   -2.3767   -1.4422 N   0  0  0  0  0  0  0  0  0  0  0  0
   -1.0217   -1.5130   -1.4446 N   0  0  0  0  0  0  0  0  0  0  0  0
   -1.2020   -0.6495   -0.4272 C   0  0  0  0  0  0  0  0  0  0  0  0
   -0.3846    0.4994    0.0098 C   0  0  0  0  0  0  0  0  0  0  0  0
    0.7804    0.6977   -0.8028 N   0  0  0  0  0  0  0  0  0  0  0  0
    1.6437    1.7784   -0.4735 C   0  0  0  0  0  0  0  0  0  0  0  0
    2.7974    1.5290    0.1250 C   0  0  0  0  0  0  0  0  0  0  0  0
    3.1425    0.1421    0.4267 C   0  0  0  0  0  0  0  0  0  0  0  0
    4.2218   -0.1678    0.9936 O   0  0  0  0  0  0  0  0  0  0  0  0
    2.2810   -0.8916    0.0939 O   0  0  0  0  0  0  0  0  0  0  0  0
   -3.7160    0.3463    0.9814 H   0  0  0  0  0  0  0  0  0  0  0  0
   -3.5824   -1.1803    1.8985 H   0  0  0  0  0  0  0  0  0  0  0  0
   -2.2608    0.0611    2.0392 H   0  0  0  0  0  0  0  0  0  0  0  0
   -0.9885    1.4399   -0.0369 H   0  0  0  0  0  0  0  0  0  0  0  0
   -0.0542    0.3720    1.0797 H   0  0  0  0  0  0  0  0  0  0  0  0
    1.0486    0.1110   -1.6208 H   0  0  0  0  0  0  0  0  0  0  0  0
    1.4220    2.8149   -0.6808 H   0  0  0  0  0  0  0  0  0  0  0  0
    3.4883    2.3453    0.3930 H   0  0  0  0  0  0  0  0  0  0  0  0
    2.5395   -1.8668    0.0821 H   0  0  0  0  0  0  0  0  0  0  0  0
  1  2  1  0
  2  3  1  0
  3  4  2  0
  4  5  1  0
  5  6  2  0
  6  7  1  0
  7  8  1  0
  8  9  1  0
  9 10  2  0
 10 11  1  0
 11 12  2  0
 11 13  1  0
  6  2  1  0
  1 14  1  0
  1 15  1  0
  1 16  1  0
  7 17  1  0
  7 18  1  0
  8 19  1  0
  9 20  1  0
 10 21  1  0
 13 22  1  0
M  END
$$$$

     RDKit          3D

 22 22  0  0  0  0  0  0  0  0999 V2000
   -3.2753   -0.4968   -0.8528 C   0  0  0  0  0  0  0  0  0  0  0  0
   -2.6844    0.1403    0.3134 N   0  0  0  0  0  0  0  0  0  0  0  0
   -3.3529    0.9105    1.1772 N   0  0  0  0  0  0  0  0  0  0  0  0
   -2.4802    1.3020    2.0949 N   0  0  0  0  0  0  0  0  0  0  0  0
   -1.2824    0.8033    1.8376 N   0  0  0  0  0  0  0  0  0  0  0  0
   -1.4052    0.0714    0.7175 C   0  0  0  0  0  0  0  0  0  0  0  0
   -0.3670   -0.7080   -0.0139 C   0  0  0  0  0  0  0  0  0  0  0  0
    0.9184   -0.5904    0.6658 N   0  0  0  0  0  0  0  0  0  0  0  0
    1.4554    0.7191    0.7989 C   0  0  0  0  0  0  0  0  0  0  0  0
    2.5882    0.9878    0.1751 C   0  0  0  0  0  0  0  0  0  0  0  0
    3.2992    0.0050   -0.6338 C   0  0  0  0  0  0  0  0  0  0  0  0
    2.8648   -1.1567   -0.7785 O   0  0  0  0  0  0  0  0  0  0  0  0
    4.4873    0.3249   -1.2741 O   0  0  0  0  0  0  0  0  0  0  0  0
   -2.5402   -0.6727   -1.6499 H   0  0  0  0  0  0  0  0  0  0  0  0
   -3.8251   -1.4158   -0.5731 H   0  0  0  0  0  0  0  0  0  0  0  0
   -4.0634    0.2152   -1.2256 H   0  0  0  0  0  0  0  0  0  0  0  0
   -0.6684   -1.7772   -0.1249 H   0  0  0  0  0  0  0  0  0  0  0  0
   -0.2158   -0.3264   -1.0462 H   0  0  0  0  0  0  0  0  0  0  0  0
    1.3937   -1.4471    1.0250 H   0  0  0  0  0  0  0  0  0  0  0  0
    0.9632    1.4978    1.3945 H   0  0  0  0  0  0  0  0  0  0  0  0
    2.9898    1.9835    0.2805 H   0  0  0  0  0  0  0  0  0  0  0  0
    5.2003   -0.3698   -1.4593 H   0  0  0  0  0  0  0  0  0  0  0  0
  1  2  1  0
  2  3  1  0
  3  4  2  0
  4  5  1  0
  5  6  2  0
  6  7  1  0
  7  8  1  0
  8  9  1  0
  9 10  2  0
 10 11  1  0
 11 12  2  0
 11 13  1  0
  6  2  1  0
  1 14  1  0
  1 15  1  0
  1 16  1  0
  7 17  1  0
  7 18  1  0
  8 19  1  0
  9 20  1  0
 10 21  1  0
 13 22  1  0
M  END
$$$$

     RDKit          3D

 22 22  0  0  0  0  0  0  0  0999 V2000
    2.9207   -1.1384   -0.0396 C   0  0  0  0  0  0  0  0  0  0  0  0
    2.5410    0.2503    0.0673 N   0  0  0  0  0  0  0  0  0  0  0  0
    3.3258    1.2661   -0.2647 N   0  0  0  0  0  0  0  0  0  0  0  0
    2.7139    2.4197   -0.0615 N   0  0  0  0  0  0  0  0  0  0  0  0
    1.5095    2.0977    0.4125 N   0  0  0  0  0  0  0  0  0  0  0  0
    1.3804    0.7746    0.5002 C   0  0  0  0  0  0  0  0  0  0  0  0
    0.2198   -0.0459    0.9714 C   0  0  0  0  0  0  0  0  0  0  0  0
   -0.6616   -0.3592   -0.1321 N   0  0  0  0  0  0  0  0  0  0  0  0
   -1.3297    0.6007   -0.9303 C   0  0  0  0  0  0  0  0  0  0  0  0
   -2.6303    0.7246   -1.0066 C   0  0  0  0  0  0  0  0  0  0  0  0
   -3.4778   -0.1690   -0.2312 C   0  0  0  0  0  0  0  0  0  0  0  0
   -4.7222   -0.0502   -0.3045 O   0  0  0  0  0  0  0  0  0  0  0  0
   -2.9496   -1.1363    0.5764 O   0  0  0  0  0  0  0  0  0  0  0  0
    2.1531   -1.7892    0.4231 H   0  0  0  0  0  0  0  0  0  0  0  0
    3.8736   -1.3083    0.5121 H   0  0  0  0  0  0  0  0  0  0  0  0
    3.0687   -1.3692   -1.1265 H   0  0  0  0  0  0  0  0  0  0  0  0
   -0.3539    0.6447    1.6580 H   0  0  0  0  0  0  0  0  0  0  0  0
    0.5363   -0.9494    1.5161 H   0  0  0  0  0  0  0  0  0  0  0  0
   -0.8196   -1.3599   -0.3601 H   0  0  0  0  0  0  0  0  0  0  0  0
   -0.7039    1.2699   -1.5108 H   0  0  0  0  0  0  0  0  0  0  0  0
   -3.0338    1.4907   -1.6465 H   0  0  0  0  0  0  0  0  0  0  0  0
   -3.5603   -1.8639    0.9772 H   0  0  0  0  0  0  0  0  0  0  0  0
  1  2  1  0
  2  3  1  0
  3  4  2  0
  4  5  1  0
  5  6  2  0
  6  7  1  0
  7  8  1  0
  8  9  1  0
  9 10  2  0
 10 11  1  0
 11 12  2  0
 11 13  1  0
  6  2  1  0
  1 14  1  0
  1 15  1  0
  1 16  1  0
  7 17  1  0
  7 18  1  0
  8 19  1  0
  9 20  1  0
 10 21  1  0
 13 22  1  0
M  END
$$$$

     RDKit          3D

 22 22  0  0  0  0  0  0  0  0999 V2000
    1.9937    1.5068    0.1218 C   0  0  0  0  0  0  0  0  0  0  0  0
    1.7207    0.3041   -0.6167 N   0  0  0  0  0  0  0  0  0  0  0  0
    2.0056    0.1023   -1.8856 N   0  0  0  0  0  0  0  0  0  0  0  0
    1.6197   -1.1016   -2.2328 N   0  0  0  0  0  0  0  0  0  0  0  0
    1.0842   -1.6757   -1.1816 N   0  0  0  0  0  0  0  0  0  0  0  0
    1.1404   -0.8094   -0.1647 C   0  0  0  0  0  0  0  0  0  0  0  0
    0.6292   -1.0999    1.1948 C   0  0  0  0  0  0  0  0  0  0  0  0
   -0.7889   -0.7270    1.2125 N   0  0  0  0  0  0  0  0  0  0  0  0
   -1.6888   -1.3530    0.3327 C   0  0  0  0  0  0  0  0  0  0  0  0
   -2.3202   -0.6378   -0.5662 C   0  0  0  0  0  0  0  0  0  0  0  0
   -2.1060    0.7882   -0.6684 C   0  0  0  0  0  0  0  0  0  0  0  0
   -2.7352    1.4620   -1.5548 O   0  0  0  0  0  0  0  0  0  0  0  0
   -1.2547    1.5127    0.1315 O   0  0  0  0  0  0  0  0  0  0  0  0
    1.3459    1.6319    1.0179 H   0  0  0  0  0  0  0  0  0  0  0  0
    3.0677    1.5622    0.4449 H   0  0  0  0  0  0  0  0  0  0  0  0
    1.8416    2.4342   -0.4931 H   0  0  0  0  0  0  0  0  0  0  0  0
    1.1998   -0.6006    1.9870 H   0  0  0  0  0  0  0  0  0  0  0  0
    0.6610   -2.1794    1.3696 H   0  0  0  0  0  0  0  0  0  0  0  0
   -1.0502    0.0028    1.8993 H   0  0  0  0  0  0  0  0  0  0  0  0
   -1.8235   -2.4285    0.4407 H   0  0  0  0  0  0  0  0  0  0  0  0
   -3.0096   -1.1295   -1.2373 H   0  0  0  0  0  0  0  0  0  0  0  0
   -1.5325    2.4351    0.4482 H   0  0  0  0  0  0  0  0  0  0  0  0
  1  2  1  0
  2  3  1  0
  3  4  2  0
  4  5  1  0
  5  6  2  0
  6  7  1  0
  7  8  1  0
  8  9  1  0
  9 10  2  0
 10 11  1  0
 11 12  2  0
 11 13  1  0
  6  2  1  0
  1 14  1  0
  1 15  1  0
  1 16  1  0
  7 17  1  0
  7 18  1  0
  8 19  1  0
  9 20  1  0
 10 21  1  0
 13 22  1  0
M  END
$$$$

     RDKit          3D

 22 22  0  0  0  0  0  0  0  0999 V2000
    3.2523    0.5540    0.6603 C   0  0  0  0  0  0  0  0  0  0  0  0
    2.5710    0.7998   -0.5946 N   0  0  0  0  0  0  0  0  0  0  0  0
    3.0079    1.5166   -1.6162 N   0  0  0  0  0  0  0  0  0  0  0  0
    2.0917    1.4951   -2.5687 N   0  0  0  0  0  0  0  0  0  0  0  0
    1.0666    0.7668   -2.1633 N   0  0  0  0  0  0  0  0  0  0  0  0
    1.3452    0.3190   -0.9248 C   0  0  0  0  0  0  0  0  0  0  0  0
    0.5300   -0.5318   -0.0352 C   0  0  0  0  0  0  0  0  0  0  0  0
   -0.7231   -0.8791   -0.6739 N   0  0  0  0  0  0  0  0  0  0  0  0
   -1.6995   -1.6857   -0.0524 C   0  0  0  0  0  0  0  0  0  0  0  0
   -2.8495   -1.1666    0.3118 C   0  0  0  0  0  0  0  0  0  0  0  0
   -3.1152    0.2487    0.0718 C   0  0  0  0  0  0  0  0  0  0  0  0
   -2.2787    0.9828   -0.4714 O   0  0  0  0  0  0  0  0  0  0  0  0
   -4.3266    0.8124    0.4513 O   0  0  0  0  0  0  0  0  0  0  0  0
    2.6705    0.9234    1.5297 H   0  0  0  0  0  0  0  0  0  0  0  0
    3.5335   -0.5189    0.7732 H   0  0  0  0  0  0  0  0  0  0  0  0
    4.2221    1.1099    0.6446 H   0  0  0  0  0  0  0  0  0  0  0  0
    0.2541   -0.0011    0.9130 H   0  0  0  0  0  0  0  0  0  0  0  0
    1.1350   -1.4362    0.2163 H   0  0  0  0  0  0  0  0  0  0  0  0
   -0.8942   -0.5085   -1.6341 H   0  0  0  0  0  0  0  0  0  0  0  0
   -1.5054   -2.7169    0.1222 H   0  0  0  0  0  0  0  0  0  0  0  0
   -3.6206   -1.7758    0.7957 H   0  0  0  0  0  0  0  0  0  0  0  0
   -4.6673    1.6921    0.1230 H   0  0  0  0  0  0  0  0  0  0  0  0
  1  2  1  0
  2  3  1  0
  3  4  2  0
  4  5  1  0
  5  6  2  0
  6  7  1  0
  7  8  1  0
  8  9  1  0
  9 10  2  0
 10 11  1  0
 11 12  2  0
 11 13  1  0
  6  2  1  0
  1 14  1  0
  1 15  1  0
  1 16  1  0
  7 17  1  0
  7 18  1  0
  8 19  1  0
  9 20  1  0
 10 21  1  0
 13 22  1  0
M  END
$$$$

     RDKit          3D

 22 22  0  0  0  0  0  0  0  0999 V2000
   -1.9600    1.1052    0.5057 C   0  0  0  0  0  0  0  0  0  0  0  0
   -2.2709    0.1517   -0.5431 N   0  0  0  0  0  0  0  0  0  0  0  0
   -3.2308    0.2125   -1.4460 N   0  0  0  0  0  0  0  0  0  0  0  0
   -3.1309   -0.8747   -2.1919 N   0  0  0  0  0  0  0  0  0  0  0  0
   -2.1242   -1.6246   -1.7781 N   0  0  0  0  0  0  0  0  0  0  0  0
   -1.5702   -0.9799   -0.7287 C   0  0  0  0  0  0  0  0  0  0  0  0
   -0.3970   -1.4637    0.0566 C   0  0  0  0  0  0  0  0  0  0  0  0
    0.8285   -0.9655   -0.5369 N   0  0  0  0  0  0  0  0  0  0  0  0
    0.9773    0.4475   -0.6122 C   0  0  0  0  0  0  0  0  0  0  0  0
    1.8735    1.1101    0.0902 C   0  0  0  0  0  0  0  0  0  0  0  0
    2.7430    0.3426    0.9795 C   0  0  0  0  0  0  0  0  0  0  0  0
    2.6504   -0.9074    1.0809 O   0  0  0  0  0  0  0  0  0  0  0  0
    3.7212    0.9455    1.7639 O   0  0  0  0  0  0  0  0  0  0  0  0
   -1.3799    1.9729    0.1125 H   0  0  0  0  0  0  0  0  0  0  0  0
   -2.9023    1.5646    0.9209 H   0  0  0  0  0  0  0  0  0  0  0  0
   -1.4485    0.6267    1.3608 H   0  0  0  0  0  0  0  0  0  0  0  0
   -0.4097   -2.5865    0.0768 H   0  0  0  0  0  0  0  0  0  0  0  0
   -0.4607   -1.1381    1.0960 H   0  0  0  0  0  0  0  0  0  0  0  0
    1.5365   -1.6438   -0.8775 H   0  0  0  0  0  0  0  0  0  0  0  0
    0.3360    1.0210   -1.2692 H   0  0  0  0  0  0  0  0  0  0  0  0
    1.9939    2.1839    0.0395 H   0  0  0  0  0  0  0  0  0  0  0  0
    4.6249    0.5000    1.9002 H   0  0  0  0  0  0  0  0  0  0  0  0
  1  2  1  0
  2  3  1  0
  3  4  2  0
  4  5  1  0
  5  6  2  0
  6  7  1  0
  7  8  1  0
  8  9  1  0
  9 10  2  0
 10 11  1  0
 11 12  2  0
 11 13  1  0
  6  2  1  0
  1 14  1  0
  1 15  1  0
  1 16  1  0
  7 17  1  0
  7 18  1  0
  8 19  1  0
  9 20  1  0
 10 21  1  0
 13 22  1  0
M  END
$$$$

     RDKit          3D

 22 22  0  0  0  0  0  0  0  0999 V2000
   -3.2434    0.1844    0.6392 C   0  0  0  0  0  0  0  0  0  0  0  0
   -2.3728    1.1765    0.0453 N   0  0  0  0  0  0  0  0  0  0  0  0
   -2.6883    2.4139   -0.1939 N   0  0  0  0  0  0  0  0  0  0  0  0
   -1.6544    3.0118   -0.7342 N   0  0  0  0  0  0  0  0  0  0  0  0
   -0.6662    2.1065   -0.8303 N   0  0  0  0  0  0  0  0  0  0  0  0
   -1.1099    0.9385   -0.3390 C   0  0  0  0  0  0  0  0  0  0  0  0
   -0.4072   -0.3329   -0.2288 C   0  0  0  0  0  0  0  0  0  0  0  0
    0.9386   -0.3132   -0.7168 N   0  0  0  0  0  0  0  0  0  0  0  0
    1.6760   -1.5250   -0.6355 C   0  0  0  0  0  0  0  0  0  0  0  0
    2.7094   -1.6897    0.1721 C   0  0  0  0  0  0  0  0  0  0  0  0
    3.1399   -0.6085    1.0289 C   0  0  0  0  0  0  0  0  0  0  0  0
    4.1212   -0.7953    1.7821 O   0  0  0  0  0  0  0  0  0  0  0  0
    2.4454    0.5872    0.9770 O   0  0  0  0  0  0  0  0  0  0  0  0
   -4.0260    0.6868    1.2114 H   0  0  0  0  0  0  0  0  0  0  0  0
   -3.6771   -0.4245   -0.1915 H   0  0  0  0  0  0  0  0  0  0  0  0
   -2.5940   -0.4681    1.2853 H   0  0  0  0  0  0  0  0  0  0  0  0
   -0.9632   -1.0920   -0.8527 H   0  0  0  0  0  0  0  0  0  0  0  0
   -0.4098   -0.7357    0.8046 H   0  0  0  0  0  0  0  0  0  0  0  0
    1.3917    0.5348   -1.1211 H   0  0  0  0  0  0  0  0  0  0  0  0
    1.3926   -2.3686   -1.2591 H   0  0  0  0  0  0  0  0  0  0  0  0
    3.2563   -2.6435    0.2075 H   0  0  0  0  0  0  0  0  0  0  0  0
    2.7410    1.3566    1.5581 H   0  0  0  0  0  0  0  0  0  0  0  0
  1  2  1  0
  2  3  1  0
  3  4  2  0
  4  5  1  0
  5  6  2  0
  6  7  1  0
  7  8  1  0
  8  9  1  0
  9 10  2  0
 10 11  1  0
 11 12  2  0
 11 13  1  0
  6  2  1  0
  1 14  1  0
  1 15  1  0
  1 16  1  0
  7 17  1  0
  7 18  1  0
  8 19  1  0
  9 20  1  0
 10 21  1  0
 13 22  1  0
M  END
$$$$

     RDKit          3D

 22 22  0  0  0  0  0  0  0  0999 V2000
   -3.1282   -0.4043   -0.1157 C   0  0  0  0  0  0  0  0  0  0  0  0
   -2.3488    0.8210   -0.1172 N   0  0  0  0  0  0  0  0  0  0  0  0
   -2.8675    1.9919   -0.4569 N   0  0  0  0  0  0  0  0  0  0  0  0
   -1.8939    2.8999   -0.3520 N   0  0  0  0  0  0  0  0  0  0  0  0
   -0.7831    2.2909    0.0499 N   0  0  0  0  0  0  0  0  0  0  0  0
   -1.0541    0.9809    0.2021 C   0  0  0  0  0  0  0  0  0  0  0  0
   -0.1089   -0.0728    0.6359 C   0  0  0  0  0  0  0  0  0  0  0  0
    0.5778   -0.6744   -0.4937 N   0  0  0  0  0  0  0  0  0  0  0  0
    1.5136   -1.6991   -0.2152 C   0  0  0  0  0  0  0  0  0  0  0  0
    2.7930   -1.3921   -0.2494 C   0  0  0  0  0  0  0  0  0  0  0  0
    3.1506   -0.0213   -0.5712 C   0  0  0  0  0  0  0  0  0  0  0  0
    4.3711    0.2747   -0.6046 O   0  0  0  0  0  0  0  0  0  0  0  0
    2.2076    0.9591   -0.8390 O   0  0  0  0  0  0  0  0  0  0  0  0
   -3.8267   -0.3691   -0.9605 H   0  0  0  0  0  0  0  0  0  0  0  0
   -2.5144   -1.3031   -0.1791 H   0  0  0  0  0  0  0  0  0  0  0  0
   -3.6919   -0.4518    0.8583 H   0  0  0  0  0  0  0  0  0  0  0  0
    0.6645    0.2921    1.3362 H   0  0  0  0  0  0  0  0  0  0  0  0
   -0.6527   -0.8800    1.1667 H   0  0  0  0  0  0  0  0  0  0  0  0
    0.3817   -0.3579   -1.4599 H   0  0  0  0  0  0  0  0  0  0  0  0
    1.1489   -2.6767    0.0108 H   0  0  0  0  0  0  0  0  0  0  0  0
    3.5634   -2.1394   -0.0436 H   0  0  0  0  0  0  0  0  0  0  0  0
    2.4980    1.9315   -0.7879 H   0  0  0  0  0  0  0  0  0  0  0  0
  1  2  1  0
  2  3  1  0
  3  4  2  0
  4  5  1  0
  5  6  2  0
  6  7  1  0
  7  8  1  0
  8  9  1  0
  9 10  2  0
 10 11  1  0
 11 12  2  0
 11 13  1  0
  6  2  1  0
  1 14  1  0
  1 15  1  0
  1 16  1  0
  7 17  1  0
  7 18  1  0
  8 19  1  0
  9 20  1  0
 10 21  1  0
 13 22  1  0
M  END
$$$$
