
     RDKit          3D

 18 18  0  0  0  0  0  0  0  0999 V2000
    2.0132   -0.1341    1.6524 O   0  0  0  0  0  0  0  0  0  0  0  0
    2.1478   -0.2971    0.4188 C   0  0  0  0  0  0  0  0  0  0  0  0
    3.4329   -0.5426   -0.0504 O   0  0  0  0  0  0  0  0  0  0  0  0
    0.9889   -0.2311   -0.4998 C   0  0  0  0  0  0  0  0  0  0  0  0
   -0.1689    0.6229   -0.1559 C   0  0  0  0  0  0  0  0  0  0  0  0
   -0.6266    2.0585   -0.1089 C   0  0  0  0  0  0  0  0  0  0  0  0
   -1.9350    2.1143    0.3534 O   0  0  0  0  0  0  0  0  0  0  0  0
   -0.3420   -0.6648    0.0102 C   0  0  0  0  0  0  0  0  0  0  0  0
   -1.1727   -1.8371    0.4015 C   0  0  0  0  0  0  0  0  0  0  0  0
   -2.4185   -1.4216    0.8123 O   0  0  0  0  0  0  0  0  0  0  0  0
    4.2446   -0.1978    0.4643 H   0  0  0  0  0  0  0  0  0  0  0  0
    1.2289   -0.3918   -1.5786 H   0  0  0  0  0  0  0  0  0  0  0  0
    0.0009    2.6594    0.5812 H   0  0  0  0  0  0  0  0  0  0  0  0
   -0.5135    2.5148   -1.1146 H   0  0  0  0  0  0  0  0  0  0  0  0
   -2.1515    1.3960    0.9762 H   0  0  0  0  0  0  0  0  0  0  0  0
   -0.6996   -2.3901    1.2347 H   0  0  0  0  0  0  0  0  0  0  0  0
   -1.2490   -2.4946   -0.5041 H   0  0  0  0  0  0  0  0  0  0  0  0
   -2.7799   -0.7632    0.1379 H   0  0  0  0  0  0  0  0  0  0  0  0
  1  2  2  0
  2  3  1  0
  2  4  1  0
  4  5  1  0
  5  6  1  0
  6  7  1  0
  5  8  2  0
  8  9  1  0
  9 10  1  0
  8  4  1  0
  3 11  1  0
  4 12  1  0
  6 13  1  0
  6 14  1  0
  7 15  1  0
  9 16  1  0
  9 17  1  0
 10 18  1  0
M  END
$$$$

     RDKit          3D

 18 18  0  0  0  0  0  0  0  0999 V2000
   -1.4958    2.6175   -1.3433 O   0  0  0  0  0  0  0  0  0  0  0  0
   -1.0789    1.7126   -0.5610 C   0  0  0  0  0  0  0  0  0  0  0  0
   -1.2529    1.8539    0.8074 O   0  0  0  0  0  0  0  0  0  0  0  0
   -0.4128    0.5222   -1.1427 C   0  0  0  0  0  0  0  0  0  0  0  0
    0.7203    0.0122   -0.2986 C   0  0  0  0  0  0  0  0  0  0  0  0
    2.1038    0.2874    0.1779 C   0  0  0  0  0  0  0  0  0  0  0  0
    2.5159   -0.7360    1.0020 O   0  0  0  0  0  0  0  0  0  0  0  0
   -0.3573   -0.7325   -0.3425 C   0  0  0  0  0  0  0  0  0  0  0  0
   -1.1214   -1.9482    0.0507 C   0  0  0  0  0  0  0  0  0  0  0  0
   -2.2981   -1.6358    0.7137 O   0  0  0  0  0  0  0  0  0  0  0  0
   -1.3931    2.7967    1.1529 H   0  0  0  0  0  0  0  0  0  0  0  0
   -0.3093    0.4773   -2.2360 H   0  0  0  0  0  0  0  0  0  0  0  0
    2.8209    0.3449   -0.6663 H   0  0  0  0  0  0  0  0  0  0  0  0
    2.1691    1.2721    0.7002 H   0  0  0  0  0  0  0  0  0  0  0  0
    3.4827   -0.9142    0.9831 H   0  0  0  0  0  0  0  0  0  0  0  0
   -0.5217   -2.6243    0.6885 H   0  0  0  0  0  0  0  0  0  0  0  0
   -1.4172   -2.5573   -0.8448 H   0  0  0  0  0  0  0  0  0  0  0  0
   -2.1542   -0.7485    1.1589 H   0  0  0  0  0  0  0  0  0  0  0  0
  1  2  2  0
  2  3  1  0
  2  4  1  0
  4  5  1  0
  5  6  1  0
  6  7  1  0
  5  8  2  0
  8  9  1  0
  9 10  1  0
  8  4  1  0
  3 11  1  0
  4 12  1  0
  6 13  1  0
  6 14  1  0
  7 15  1  0
  9 16  1  0
  9 17  1  0
 10 18  1  0
M  END
$$$$

     RDKit          3D

 18 18  0  0  0  0  0  0  0  0999 V2000
   -0.2326    3.4518   -0.6044 O   0  0  0  0  0  0  0  0  0  0  0  0
   -0.0952    2.3175   -0.0571 C   0  0  0  0  0  0  0  0  0  0  0  0
    0.3316    2.2102    1.2491 O   0  0  0  0  0  0  0  0  0  0  0  0
   -0.4000    1.1018   -0.8412 C   0  0  0  0  0  0  0  0  0  0  0  0
   -0.7904   -0.1370   -0.1481 C   0  0  0  0  0  0  0  0  0  0  0  0
   -1.8584   -0.8972    0.5582 C   0  0  0  0  0  0  0  0  0  0  0  0
   -1.3909   -2.1457    0.9647 O   0  0  0  0  0  0  0  0  0  0  0  0
    0.4492   -0.0869   -0.5911 C   0  0  0  0  0  0  0  0  0  0  0  0
    1.7895   -0.7385   -0.7506 C   0  0  0  0  0  0  0  0  0  0  0  0
    1.7876   -2.0120   -0.1735 O   0  0  0  0  0  0  0  0  0  0  0  0
    0.1279    2.9726    1.9121 H   0  0  0  0  0  0  0  0  0  0  0  0
   -0.7410    1.2443   -1.8915 H   0  0  0  0  0  0  0  0  0  0  0  0
   -2.2170   -0.3464    1.4716 H   0  0  0  0  0  0  0  0  0  0  0  0
   -2.7595   -1.0165   -0.0758 H   0  0  0  0  0  0  0  0  0  0  0  0
   -1.3085   -2.7729    0.2097 H   0  0  0  0  0  0  0  0  0  0  0  0
    2.5427   -0.1479   -0.1834 H   0  0  0  0  0  0  0  0  0  0  0  0
    2.1126   -0.7881   -1.7923 H   0  0  0  0  0  0  0  0  0  0  0  0
    2.6522   -2.2093    0.2768 H   0  0  0  0  0  0  0  0  0  0  0  0
  1  2  2  0
  2  3  1  0
  2  4  1  0
  4  5  1  0
  5  6  1  0
  6  7  1  0
  5  8  2  0
  8  9  1  0
  9 10  1  0
  8  4  1  0
  3 11  1  0
  4 12  1  0
  6 13  1  0
  6 14  1  0
  7 15  1  0
  9 16  1  0
  9 17  1  0
 10 18  1  0
M  END
$$$$

     RDKit          3D

 18 18  0  0  0  0  0  0  0  0999 V2000
   -0.6349    2.9123   -1.6008 O   0  0  0  0  0  0  0  0  0  0  0  0
   -0.6725    1.9663   -0.7745 C   0  0  0  0  0  0  0  0  0  0  0  0
   -1.5013    2.0276    0.3374 O   0  0  0  0  0  0  0  0  0  0  0  0
    0.1495    0.7336   -0.9188 C   0  0  0  0  0  0  0  0  0  0  0  0
    0.7274    0.1402    0.3349 C   0  0  0  0  0  0  0  0  0  0  0  0
    1.7278    0.1930    1.4183 C   0  0  0  0  0  0  0  0  0  0  0  0
    3.0485    0.1288    0.9251 O   0  0  0  0  0  0  0  0  0  0  0  0
   -0.3568   -0.4962   -0.2561 C   0  0  0  0  0  0  0  0  0  0  0  0
   -1.3171   -1.6223   -0.2135 C   0  0  0  0  0  0  0  0  0  0  0  0
   -1.1956   -2.3978   -1.3885 O   0  0  0  0  0  0  0  0  0  0  0  0
   -2.1802    2.7540    0.3950 H   0  0  0  0  0  0  0  0  0  0  0  0
    0.8249    0.6431   -1.7909 H   0  0  0  0  0  0  0  0  0  0  0  0
    1.5686    1.1308    1.9901 H   0  0  0  0  0  0  0  0  0  0  0  0
    1.6205   -0.7107    2.0655 H   0  0  0  0  0  0  0  0  0  0  0  0
    3.1138   -0.4514    0.1424 H   0  0  0  0  0  0  0  0  0  0  0  0
   -1.1185   -2.3143    0.6265 H   0  0  0  0  0  0  0  0  0  0  0  0
   -2.3740   -1.2865   -0.0875 H   0  0  0  0  0  0  0  0  0  0  0  0
   -1.4299   -3.3506   -1.2046 H   0  0  0  0  0  0  0  0  0  0  0  0
  1  2  2  0
  2  3  1  0
  2  4  1  0
  4  5  1  0
  5  6  1  0
  6  7  1  0
  5  8  2  0
  8  9  1  0
  9 10  1  0
  8  4  1  0
  3 11  1  0
  4 12  1  0
  6 13  1  0
  6 14  1  0
  7 15  1  0
  9 16  1  0
  9 17  1  0
 10 18  1  0
M  END
$$$$

     RDKit          3D

 18 18  0  0  0  0  0  0  0  0999 V2000
    0.0724    3.1362    0.9252 O   0  0  0  0  0  0  0  0  0  0  0  0
    0.1083    2.0681    0.2773 C   0  0  0  0  0  0  0  0  0  0  0  0
    0.2707    2.1306   -1.0926 O   0  0  0  0  0  0  0  0  0  0  0  0
   -0.0257    0.7919    1.0171 C   0  0  0  0  0  0  0  0  0  0  0  0
    0.7142   -0.3340    0.3959 C   0  0  0  0  0  0  0  0  0  0  0  0
    1.9798   -1.0373    0.0957 C   0  0  0  0  0  0  0  0  0  0  0  0
    2.8176   -0.1842   -0.6399 O   0  0  0  0  0  0  0  0  0  0  0  0
   -0.6723   -0.3108    0.2587 C   0  0  0  0  0  0  0  0  0  0  0  0
   -1.9016   -0.9555   -0.2779 C   0  0  0  0  0  0  0  0  0  0  0  0
   -2.7424   -1.2684    0.7878 O   0  0  0  0  0  0  0  0  0  0  0  0
    0.0030    2.9958   -1.5460 H   0  0  0  0  0  0  0  0  0  0  0  0
   -0.1522    0.8025    2.1039 H   0  0  0  0  0  0  0  0  0  0  0  0
    1.8000   -1.9408   -0.5072 H   0  0  0  0  0  0  0  0  0  0  0  0
    2.4748   -1.3555    1.0373 H   0  0  0  0  0  0  0  0  0  0  0  0
    2.6264   -0.2608   -1.6027 H   0  0  0  0  0  0  0  0  0  0  0  0
   -1.6683   -1.8886   -0.8165 H   0  0  0  0  0  0  0  0  0  0  0  0
   -2.4394   -0.2990   -1.0052 H   0  0  0  0  0  0  0  0  0  0  0  0
   -3.2653   -2.0902    0.5892 H   0  0  0  0  0  0  0  0  0  0  0  0
  1  2  2  0
  2  3  1  0
  2  4  1  0
  4  5  1  0
  5  6  1  0
  6  7  1  0
  5  8  2  0
  8  9  1  0
  9 10  1  0
  8  4  1  0
  3 11  1  0
  4 12  1  0
  6 13  1  0
  6 14  1  0
  7 15  1  0
  9 16  1  0
  9 17  1  0
 10 18  1  0
M  END
$$$$

     RDKit          3D

 18 18  0  0  0  0  0  0  0  0999 V2000
    0.1133    1.9595    1.4574 O   0  0  0  0  0  0  0  0  0  0  0  0
    0.4203    2.0304    0.2384 C   0  0  0  0  0  0  0  0  0  0  0  0
    0.8418    3.2657   -0.2231 O   0  0  0  0  0  0  0  0  0  0  0  0
    0.3485    0.8853   -0.6784 C   0  0  0  0  0  0  0  0  0  0  0  0
    0.5302   -0.4928   -0.1297 C   0  0  0  0  0  0  0  0  0  0  0  0
    1.5187   -1.4903    0.3484 C   0  0  0  0  0  0  0  0  0  0  0  0
    2.4298   -1.7985   -0.6747 O   0  0  0  0  0  0  0  0  0  0  0  0
   -0.6944   -0.1188   -0.3897 C   0  0  0  0  0  0  0  0  0  0  0  0
   -2.1652   -0.4063   -0.4178 C   0  0  0  0  0  0  0  0  0  0  0  0
   -2.4242   -1.6872    0.0518 O   0  0  0  0  0  0  0  0  0  0  0  0
    0.6123    4.1424    0.2414 H   0  0  0  0  0  0  0  0  0  0  0  0
    0.6451    1.0770   -1.7248 H   0  0  0  0  0  0  0  0  0  0  0  0
    2.1146   -1.0559    1.1806 H   0  0  0  0  0  0  0  0  0  0  0  0
    1.0004   -2.4033    0.6769 H   0  0  0  0  0  0  0  0  0  0  0  0
    3.2980   -2.1072   -0.3258 H   0  0  0  0  0  0  0  0  0  0  0  0
   -2.4741   -0.3183   -1.4798 H   0  0  0  0  0  0  0  0  0  0  0  0
   -2.7154    0.3572    0.1453 H   0  0  0  0  0  0  0  0  0  0  0  0
   -3.3997   -1.8388   -0.0537 H   0  0  0  0  0  0  0  0  0  0  0  0
  1  2  2  0
  2  3  1  0
  2  4  1  0
  4  5  1  0
  5  6  1  0
  6  7  1  0
  5  8  2  0
  8  9  1  0
  9 10  1  0
  8  4  1  0
  3 11  1  0
  4 12  1  0
  6 13  1  0
  6 14  1  0
  7 15  1  0
  9 16  1  0
  9 17  1  0
 10 18  1  0
M  END
$$$$

     RDKit          3D

 18 18  0  0  0  0  0  0  0  0999 V2000
   -1.2945    1.6872   -1.1907 O   0  0  0  0  0  0  0  0  0  0  0  0
   -0.9767    1.7828    0.0015 C   0  0  0  0  0  0  0  0  0  0  0  0
   -1.3126    2.9416    0.6910 O   0  0  0  0  0  0  0  0  0  0  0  0
   -0.2550    0.7115    0.7152 C   0  0  0  0  0  0  0  0  0  0  0  0
    0.7692   -0.0317   -0.0430 C   0  0  0  0  0  0  0  0  0  0  0  0
    2.1109   -0.0211   -0.6917 C   0  0  0  0  0  0  0  0  0  0  0  0
    3.1153    0.2663    0.2442 O   0  0  0  0  0  0  0  0  0  0  0  0
   -0.3547   -0.6847    0.2747 C   0  0  0  0  0  0  0  0  0  0  0  0
   -1.1913   -1.9243    0.2473 C   0  0  0  0  0  0  0  0  0  0  0  0
   -2.3984   -1.6742   -0.3959 O   0  0  0  0  0  0  0  0  0  0  0  0
   -1.7938    3.6832    0.2006 H   0  0  0  0  0  0  0  0  0  0  0  0
   -0.0082    0.8734    1.7766 H   0  0  0  0  0  0  0  0  0  0  0  0
    2.1416    0.8054   -1.4295 H   0  0  0  0  0  0  0  0  0  0  0  0
    2.3113   -0.9488   -1.2506 H   0  0  0  0  0  0  0  0  0  0  0  0
    3.9797    0.1416   -0.2503 H   0  0  0  0  0  0  0  0  0  0  0  0
   -0.6688   -2.7472   -0.2958 H   0  0  0  0  0  0  0  0  0  0  0  0
   -1.4065   -2.2992    1.2676 H   0  0  0  0  0  0  0  0  0  0  0  0
   -2.7676   -2.5617   -0.6985 H   0  0  0  0  0  0  0  0  0  0  0  0
  1  2  2  0
  2  3  1  0
  2  4  1  0
  4  5  1  0
  5  6  1  0
  6  7  1  0
  5  8  2  0
  8  9  1  0
  9 10  1  0
  8  4  1  0
  3 11  1  0
  4 12  1  0
  6 13  1  0
  6 14  1  0
  7 15  1  0
  9 16  1  0
  9 17  1  0
 10 18  1  0
M  END
$$$$

     RDKit          3D

 18 18  0  0  0  0  0  0  0  0999 V2000
   -0.5517    1.2384   -1.7104 O   0  0  0  0  0  0  0  0  0  0  0  0
   -0.6193    1.6235   -0.5229 C   0  0  0  0  0  0  0  0  0  0  0  0
   -1.2167    2.8365   -0.2585 O   0  0  0  0  0  0  0  0  0  0  0  0
   -0.0817    0.8210    0.5895 C   0  0  0  0  0  0  0  0  0  0  0  0
    0.9113   -0.2473    0.3041 C   0  0  0  0  0  0  0  0  0  0  0  0
    2.3194   -0.6284    0.0336 C   0  0  0  0  0  0  0  0  0  0  0  0
    2.8212   -0.0181   -1.1107 O   0  0  0  0  0  0  0  0  0  0  0  0
   -0.3829   -0.6414    0.4650 C   0  0  0  0  0  0  0  0  0  0  0  0
   -1.4550   -1.6584    0.5167 C   0  0  0  0  0  0  0  0  0  0  0  0
   -2.3901   -1.3261   -0.4829 O   0  0  0  0  0  0  0  0  0  0  0  0
   -1.4826    3.4396   -1.0419 H   0  0  0  0  0  0  0  0  0  0  0  0
   -0.1733    1.2177    1.6142 H   0  0  0  0  0  0  0  0  0  0  0  0
    2.4481   -1.7309   -0.0188 H   0  0  0  0  0  0  0  0  0  0  0  0
    3.0050   -0.3030    0.8689 H   0  0  0  0  0  0  0  0  0  0  0  0
    3.2279    0.8488   -0.8698 H   0  0  0  0  0  0  0  0  0  0  0  0
   -1.0848   -2.6552    0.2738 H   0  0  0  0  0  0  0  0  0  0  0  0
   -2.0082   -1.6348    1.4758 H   0  0  0  0  0  0  0  0  0  0  0  0
   -3.2869   -1.1820   -0.1256 H   0  0  0  0  0  0  0  0  0  0  0  0
  1  2  2  0
  2  3  1  0
  2  4  1  0
  4  5  1  0
  5  6  1  0
  6  7  1  0
  5  8  2  0
  8  9  1  0
  9 10  1  0
  8  4  1  0
  3 11  1  0
  4 12  1  0
  6 13  1  0
  6 14  1  0
  7 15  1  0
  9 16  1  0
  9 17  1  0
 10 18  1  0
M  END
$$$$
