
     RDKit          3D

 24 24  0  0  0  0  0  0  0  0999 V2000
    3.9725   -0.3648   -0.2709 O   0  0  0  0  0  0  0  0  0  0  0  0
    2.8423   -0.9388   -0.3668 C   0  0  0  0  0  0  0  0  0  0  0  0
    1.6185   -0.2518   -0.1067 N   0  0  0  0  0  0  0  0  0  0  0  0
    1.6874    1.1223    0.2717 C   0  0  0  0  0  0  0  0  0  0  0  0
    0.3941    1.8565    0.2430 C   0  0  0  0  0  0  0  0  0  0  0  0
   -0.7663    1.0046    0.1883 N   0  0  0  0  0  0  0  0  0  0  0  0
   -1.9730    1.5583   -0.2986 C   0  0  0  0  0  0  0  0  0  0  0  0
   -3.0598    0.9497   -0.4066 O   0  0  0  0  0  0  0  0  0  0  0  0
   -0.6694   -0.3469    0.6175 C   0  0  1  0  0  0  0  0  0  0  0  0
   -1.9146   -1.1633    0.4790 C   0  0  0  0  0  0  0  0  0  0  0  0
   -1.6289   -2.4668    0.9502 O   0  0  0  0  0  0  0  0  0  0  0  0
    0.3954   -1.0160   -0.2504 C   0  0  0  0  0  0  0  0  0  0  0  0
    2.8880   -1.9832   -0.6599 H   0  0  0  0  0  0  0  0  0  0  0  0
    2.3993    1.6289   -0.4388 H   0  0  0  0  0  0  0  0  0  0  0  0
    2.1697    1.2109    1.2794 H   0  0  0  0  0  0  0  0  0  0  0  0
    0.2990    2.4830    1.1541 H   0  0  0  0  0  0  0  0  0  0  0  0
    0.3342    2.5667   -0.6157 H   0  0  0  0  0  0  0  0  0  0  0  0
   -2.0206    2.6127   -0.6259 H   0  0  0  0  0  0  0  0  0  0  0  0
   -0.2968   -0.3671    1.6820 H   0  0  0  0  0  0  0  0  0  0  0  0
   -2.2854   -1.2319   -0.5417 H   0  0  0  0  0  0  0  0  0  0  0  0
   -2.7274   -0.7561    1.1243 H   0  0  0  0  0  0  0  0  0  0  0  0
   -2.2628   -3.0800    0.4902 H   0  0  0  0  0  0  0  0  0  0  0  0
    0.0774   -0.9486   -1.3067 H   0  0  0  0  0  0  0  0  0  0  0  0
    0.5272   -2.0783    0.0227 H   0  0  0  0  0  0  0  0  0  0  0  0
  1  2  2  0
  2  3  1  0
  3  4  1  0
  4  5  1  0
  5  6  1  0
  6  7  1  0
  7  8  2  0
  6  9  1  0
  9 10  1  0
 10 11  1  0
  9 12  1  0
 12  3  1  0
  2 13  1  0
  4 14  1  0
  4 15  1  0
  5 16  1  0
  5 17  1  0
  7 18  1  0
  9 19  1  1
 10 20  1  0
 10 21  1  0
 11 22  1  0
 12 23  1  0
 12 24  1  0
M  END
$$$$

     RDKit          3D

 24 24  0  0  0  0  0  0  0  0999 V2000
   -1.6874   -3.1163    0.4913 O   0  0  0  0  0  0  0  0  0  0  0  0
   -2.1446   -1.9511    0.5454 C   0  0  0  0  0  0  0  0  0  0  0  0
   -1.4443   -0.8916   -0.0596 N   0  0  0  0  0  0  0  0  0  0  0  0
   -1.9908    0.4463    0.0151 C   0  0  0  0  0  0  0  0  0  0  0  0
   -0.9423    1.2891    0.7482 C   0  0  0  0  0  0  0  0  0  0  0  0
    0.3113    1.1730    0.0487 N   0  0  0  0  0  0  0  0  0  0  0  0
    1.0921    2.3528   -0.1014 C   0  0  0  0  0  0  0  0  0  0  0  0
    2.2029    2.3574   -0.6967 O   0  0  0  0  0  0  0  0  0  0  0  0
    0.8252   -0.0452   -0.5052 C   0  0  1  0  0  0  0  0  0  0  0  0
    1.9209   -0.6644    0.3424 C   0  0  0  0  0  0  0  0  0  0  0  0
    3.0102    0.1557    0.5047 O   0  0  0  0  0  0  0  0  0  0  0  0
   -0.2117   -1.1040   -0.7434 C   0  0  0  0  0  0  0  0  0  0  0  0
   -3.0794   -1.8127    1.0679 H   0  0  0  0  0  0  0  0  0  0  0  0
   -2.1223    0.8664   -1.0086 H   0  0  0  0  0  0  0  0  0  0  0  0
   -2.9476    0.4893    0.5397 H   0  0  0  0  0  0  0  0  0  0  0  0
   -0.8559    0.8906    1.7880 H   0  0  0  0  0  0  0  0  0  0  0  0
   -1.3380    2.3043    0.7800 H   0  0  0  0  0  0  0  0  0  0  0  0
    0.7647    3.3083    0.2924 H   0  0  0  0  0  0  0  0  0  0  0  0
    1.2896    0.2012   -1.4826 H   0  0  0  0  0  0  0  0  0  0  0  0
    2.2633   -1.5715   -0.2254 H   0  0  0  0  0  0  0  0  0  0  0  0
    1.5245   -1.0635    1.3060 H   0  0  0  0  0  0  0  0  0  0  0  0
    3.8568   -0.3201    0.3227 H   0  0  0  0  0  0  0  0  0  0  0  0
    0.1629   -2.1173   -0.4796 H   0  0  0  0  0  0  0  0  0  0  0  0
   -0.4599   -1.1768   -1.8439 H   0  0  0  0  0  0  0  0  0  0  0  0
  1  2  2  0
  2  3  1  0
  3  4  1  0
  4  5  1  0
  5  6  1  0
  6  7  1  0
  7  8  2  0
  6  9  1  0
  9 10  1  0
 10 11  1  0
  9 12  1  0
 12  3  1  0
  2 13  1  0
  4 14  1  0
  4 15  1  0
  5 16  1  0
  5 17  1  0
  7 18  1  0
  9 19  1  6
 10 20  1  0
 10 21  1  0
 11 22  1  0
 12 23  1  0
 12 24  1  0
M  END
$$$$

     RDKit          3D

 24 24  0  0  0  0  0  0  0  0999 V2000
   -2.6687   -1.9901    1.3711 O   0  0  0  0  0  0  0  0  0  0  0  0
   -2.7161   -0.8138    0.9698 C   0  0  0  0  0  0  0  0  0  0  0  0
   -1.7045   -0.3017    0.1351 N   0  0  0  0  0  0  0  0  0  0  0  0
   -1.7384    1.0664   -0.3452 C   0  0  0  0  0  0  0  0  0  0  0  0
   -0.4871    1.7510    0.1478 C   0  0  0  0  0  0  0  0  0  0  0  0
    0.6799    0.8782    0.0996 N   0  0  0  0  0  0  0  0  0  0  0  0
    1.8136    1.2721    0.8539 C   0  0  0  0  0  0  0  0  0  0  0  0
    1.8313    2.3257    1.5401 O   0  0  0  0  0  0  0  0  0  0  0  0
    0.6033   -0.3032   -0.6949 C   0  0  1  0  0  0  0  0  0  0  0  0
    1.7698   -1.2274   -0.6106 C   0  0  0  0  0  0  0  0  0  0  0  0
    2.9731   -0.6976   -0.9925 O   0  0  0  0  0  0  0  0  0  0  0  0
   -0.6156   -1.1301   -0.2573 C   0  0  0  0  0  0  0  0  0  0  0  0
   -3.5313   -0.1831    1.2597 H   0  0  0  0  0  0  0  0  0  0  0  0
   -1.7838    1.0483   -1.4512 H   0  0  0  0  0  0  0  0  0  0  0  0
   -2.6029    1.5840    0.1069 H   0  0  0  0  0  0  0  0  0  0  0  0
   -0.3116    2.6638   -0.4584 H   0  0  0  0  0  0  0  0  0  0  0  0
   -0.6398    2.0507    1.2081 H   0  0  0  0  0  0  0  0  0  0  0  0
    2.7245    0.6743    0.8714 H   0  0  0  0  0  0  0  0  0  0  0  0
    0.4457   -0.0283   -1.7610 H   0  0  0  0  0  0  0  0  0  0  0  0
    1.5333   -2.1069   -1.2615 H   0  0  0  0  0  0  0  0  0  0  0  0
    1.8366   -1.6464    0.4210 H   0  0  0  0  0  0  0  0  0  0  0  0
    3.6865   -1.3225   -0.6718 H   0  0  0  0  0  0  0  0  0  0  0  0
   -0.2467   -1.7362    0.6184 H   0  0  0  0  0  0  0  0  0  0  0  0
   -0.8513   -1.8270   -1.0986 H   0  0  0  0  0  0  0  0  0  0  0  0
  1  2  2  0
  2  3  1  0
  3  4  1  0
  4  5  1  0
  5  6  1  0
  6  7  1  0
  7  8  2  0
  6  9  1  0
  9 10  1  0
 10 11  1  0
  9 12  1  0
 12  3  1  0
  2 13  1  0
  4 14  1  0
  4 15  1  0
  5 16  1  0
  5 17  1  0
  7 18  1  0
  9 19  1  6
 10 20  1  0
 10 21  1  0
 11 22  1  0
 12 23  1  0
 12 24  1  0
M  END
$$$$

     RDKit          3D

 24 24  0  0  0  0  0  0  0  0999 V2000
   -1.5794   -3.2146    0.2238 O   0  0  0  0  0  0  0  0  0  0  0  0
   -1.9859   -2.1678   -0.3745 C   0  0  0  0  0  0  0  0  0  0  0  0
   -1.3829   -0.9155   -0.1149 N   0  0  0  0  0  0  0  0  0  0  0  0
   -1.8626    0.2617   -0.8079 C   0  0  0  0  0  0  0  0  0  0  0  0
   -0.7436    1.1979   -1.2003 C   0  0  0  0  0  0  0  0  0  0  0  0
    0.3469    1.1561   -0.2742 N   0  0  0  0  0  0  0  0  0  0  0  0
    0.9099    2.3360    0.2245 C   0  0  0  0  0  0  0  0  0  0  0  0
    0.4521    3.4457   -0.1456 O   0  0  0  0  0  0  0  0  0  0  0  0
    0.8433   -0.1262    0.1257 C   0  0  1  0  0  0  0  0  0  0  0  0
    2.0913   -0.0626    0.9552 C   0  0  0  0  0  0  0  0  0  0  0  0
    2.4709   -1.3624    1.2780 O   0  0  0  0  0  0  0  0  0  0  0  0
   -0.2915   -0.8347    0.8442 C   0  0  0  0  0  0  0  0  0  0  0  0
   -2.8061   -2.2534   -1.0897 H   0  0  0  0  0  0  0  0  0  0  0  0
   -2.3652   -0.0644   -1.7474 H   0  0  0  0  0  0  0  0  0  0  0  0
   -2.5852    0.7833   -0.1517 H   0  0  0  0  0  0  0  0  0  0  0  0
   -0.3496    0.8426   -2.1923 H   0  0  0  0  0  0  0  0  0  0  0  0
   -1.1782    2.2164   -1.2948 H   0  0  0  0  0  0  0  0  0  0  0  0
    1.7343    2.3692    0.9257 H   0  0  0  0  0  0  0  0  0  0  0  0
    1.0796   -0.7537   -0.7777 H   0  0  0  0  0  0  0  0  0  0  0  0
    1.9405    0.5654    1.8553 H   0  0  0  0  0  0  0  0  0  0  0  0
    2.8890    0.3692    0.3225 H   0  0  0  0  0  0  0  0  0  0  0  0
    2.9707   -1.7706    0.5183 H   0  0  0  0  0  0  0  0  0  0  0  0
   -0.5862   -0.1900    1.7098 H   0  0  0  0  0  0  0  0  0  0  0  0
   -0.0122   -1.8276    1.1880 H   0  0  0  0  0  0  0  0  0  0  0  0
  1  2  2  0
  2  3  1  0
  3  4  1  0
  4  5  1  0
  5  6  1  0
  6  7  1  0
  7  8  2  0
  6  9  1  0
  9 10  1  0
 10 11  1  0
  9 12  1  0
 12  3  1  0
  2 13  1  0
  4 14  1  0
  4 15  1  0
  5 16  1  0
  5 17  1  0
  7 18  1  0
  9 19  1  6
 10 20  1  0
 10 21  1  0
 11 22  1  0
 12 23  1  0
 12 24  1  0
M  END
$$$$

     RDKit          3D

 24 24  0  0  0  0  0  0  0  0999 V2000
   -3.6512   -1.3848   -0.8329 O   0  0  0  0  0  0  0  0  0  0  0  0
   -2.4845   -1.7791   -0.6285 C   0  0  0  0  0  0  0  0  0  0  0  0
   -1.5234   -0.8691   -0.1462 N   0  0  0  0  0  0  0  0  0  0  0  0
   -1.9288    0.4949    0.0947 C   0  0  0  0  0  0  0  0  0  0  0  0
   -0.8340    1.4732    0.2086 C   0  0  0  0  0  0  0  0  0  0  0  0
    0.4633    1.0218   -0.2256 N   0  0  0  0  0  0  0  0  0  0  0  0
    1.3813    1.9761   -0.7181 C   0  0  0  0  0  0  0  0  0  0  0  0
    1.0637    3.1860   -0.7717 O   0  0  0  0  0  0  0  0  0  0  0  0
    0.8876   -0.3584   -0.1874 C   0  0  1  0  0  0  0  0  0  0  0  0
    1.9584   -0.5240    0.9002 C   0  0  0  0  0  0  0  0  0  0  0  0
    3.0630    0.2666    0.6582 O   0  0  0  0  0  0  0  0  0  0  0  0
   -0.1801   -1.3458    0.0840 C   0  0  0  0  0  0  0  0  0  0  0  0
   -2.2197   -2.8026   -0.8195 H   0  0  0  0  0  0  0  0  0  0  0  0
   -2.5288    0.4863    1.0401 H   0  0  0  0  0  0  0  0  0  0  0  0
   -2.6232    0.7665   -0.7452 H   0  0  0  0  0  0  0  0  0  0  0  0
   -1.0877    2.3801   -0.3769 H   0  0  0  0  0  0  0  0  0  0  0  0
   -0.7157    1.8276    1.2688 H   0  0  0  0  0  0  0  0  0  0  0  0
    2.3615    1.6935   -1.0548 H   0  0  0  0  0  0  0  0  0  0  0  0
    1.3707   -0.5673   -1.1737 H   0  0  0  0  0  0  0  0  0  0  0  0
    1.4907   -0.2688    1.8831 H   0  0  0  0  0  0  0  0  0  0  0  0
    2.2883   -1.5741    0.9722 H   0  0  0  0  0  0  0  0  0  0  0  0
    3.6006   -0.1584   -0.0571 H   0  0  0  0  0  0  0  0  0  0  0  0
   -0.1518   -1.6958    1.1532 H   0  0  0  0  0  0  0  0  0  0  0  0
   -0.0004   -2.2446   -0.5255 H   0  0  0  0  0  0  0  0  0  0  0  0
  1  2  2  0
  2  3  1  0
  3  4  1  0
  4  5  1  0
  5  6  1  0
  6  7  1  0
  7  8  2  0
  6  9  1  0
  9 10  1  0
 10 11  1  0
  9 12  1  0
 12  3  1  0
  2 13  1  0
  4 14  1  0
  4 15  1  0
  5 16  1  0
  5 17  1  0
  7 18  1  0
  9 19  1  6
 10 20  1  0
 10 21  1  0
 11 22  1  0
 12 23  1  0
 12 24  1  0
M  END
$$$$

     RDKit          3D

 24 24  0  0  0  0  0  0  0  0999 V2000
    4.0024    0.3655    0.1256 O   0  0  0  0  0  0  0  0  0  0  0  0
    3.0335   -0.4423    0.0419 C   0  0  0  0  0  0  0  0  0  0  0  0
    1.6874   -0.0387   -0.1170 N   0  0  0  0  0  0  0  0  0  0  0  0
    1.4402    1.3858   -0.1838 C   0  0  0  0  0  0  0  0  0  0  0  0
    0.0095    1.7505   -0.3209 C   0  0  0  0  0  0  0  0  0  0  0  0
   -0.9102    0.7964    0.2504 N   0  0  0  0  0  0  0  0  0  0  0  0
   -2.2482    1.2389    0.4757 C   0  0  0  0  0  0  0  0  0  0  0  0
   -2.6434    2.4000    0.2012 O   0  0  0  0  0  0  0  0  0  0  0  0
   -0.5526   -0.5471    0.5958 C   0  0  1  0  0  0  0  0  0  0  0  0
   -1.6589   -1.5352    0.3679 C   0  0  0  0  0  0  0  0  0  0  0  0
   -2.0680   -1.5848   -0.9573 O   0  0  0  0  0  0  0  0  0  0  0  0
    0.6552   -1.0325   -0.2024 C   0  0  0  0  0  0  0  0  0  0  0  0
    3.2554   -1.4956    0.0956 H   0  0  0  0  0  0  0  0  0  0  0  0
    1.9762    1.7515   -1.1029 H   0  0  0  0  0  0  0  0  0  0  0  0
    1.9313    1.8548    0.6786 H   0  0  0  0  0  0  0  0  0  0  0  0
   -0.2550    1.9161   -1.3993 H   0  0  0  0  0  0  0  0  0  0  0  0
   -0.1453    2.7366    0.1991 H   0  0  0  0  0  0  0  0  0  0  0  0
   -2.9959    0.5749    0.9031 H   0  0  0  0  0  0  0  0  0  0  0  0
   -0.3091   -0.5704    1.6796 H   0  0  0  0  0  0  0  0  0  0  0  0
   -2.5154   -1.4043    1.0387 H   0  0  0  0  0  0  0  0  0  0  0  0
   -1.2270   -2.5521    0.5931 H   0  0  0  0  0  0  0  0  0  0  0  0
   -1.7785   -2.4040   -1.4297 H   0  0  0  0  0  0  0  0  0  0  0  0
    0.9929   -1.9764    0.3016 H   0  0  0  0  0  0  0  0  0  0  0  0
    0.3235   -1.1876   -1.2343 H   0  0  0  0  0  0  0  0  0  0  0  0
  1  2  2  0
  2  3  1  0
  3  4  1  0
  4  5  1  0
  5  6  1  0
  6  7  1  0
  7  8  2  0
  6  9  1  0
  9 10  1  0
 10 11  1  0
  9 12  1  0
 12  3  1  0
  2 13  1  0
  4 14  1  0
  4 15  1  0
  5 16  1  0
  5 17  1  0
  7 18  1  0
  9 19  1  1
 10 20  1  0
 10 21  1  0
 11 22  1  0
 12 23  1  0
 12 24  1  0
M  END
$$$$

     RDKit          3D

 24 24  0  0  0  0  0  0  0  0999 V2000
   -2.0110   -2.5758    1.9074 O   0  0  0  0  0  0  0  0  0  0  0  0
   -2.4132   -1.5405    1.3207 C   0  0  0  0  0  0  0  0  0  0  0  0
   -1.4961   -0.6854    0.6838 N   0  0  0  0  0  0  0  0  0  0  0  0
   -1.9029    0.5285   -0.0120 C   0  0  0  0  0  0  0  0  0  0  0  0
   -0.7834    1.5265    0.1731 C   0  0  0  0  0  0  0  0  0  0  0  0
    0.4175    1.0050   -0.4817 N   0  0  0  0  0  0  0  0  0  0  0  0
    1.3571    1.9147   -0.9715 C   0  0  0  0  0  0  0  0  0  0  0  0
    1.1804    3.1382   -0.8554 O   0  0  0  0  0  0  0  0  0  0  0  0
    0.5295   -0.4326   -0.5666 C   0  0  1  0  0  0  0  0  0  0  0  0
    1.9501   -0.9054   -0.7021 C   0  0  0  0  0  0  0  0  0  0  0  0
    2.7439   -0.5331    0.3557 O   0  0  0  0  0  0  0  0  0  0  0  0
   -0.0726   -0.9983    0.7024 C   0  0  0  0  0  0  0  0  0  0  0  0
   -3.4661   -1.2829    1.2910 H   0  0  0  0  0  0  0  0  0  0  0  0
   -1.9590    0.2405   -1.0963 H   0  0  0  0  0  0  0  0  0  0  0  0
   -2.8751    0.9010    0.2966 H   0  0  0  0  0  0  0  0  0  0  0  0
   -1.1052    2.4830   -0.2765 H   0  0  0  0  0  0  0  0  0  0  0  0
   -0.5775    1.5982    1.2580 H   0  0  0  0  0  0  0  0  0  0  0  0
    2.2427    1.5590   -1.4539 H   0  0  0  0  0  0  0  0  0  0  0  0
   -0.0279   -0.7907   -1.4450 H   0  0  0  0  0  0  0  0  0  0  0  0
    2.3424   -0.5700   -1.6894 H   0  0  0  0  0  0  0  0  0  0  0  0
    1.9212   -2.0135   -0.7472 H   0  0  0  0  0  0  0  0  0  0  0  0
    3.4943   -0.0038    0.0063 H   0  0  0  0  0  0  0  0  0  0  0  0
    0.3982   -0.4739    1.5593 H   0  0  0  0  0  0  0  0  0  0  0  0
    0.1127   -2.0887    0.7434 H   0  0  0  0  0  0  0  0  0  0  0  0
  1  2  2  0
  2  3  1  0
  3  4  1  0
  4  5  1  0
  5  6  1  0
  6  7  1  0
  7  8  2  0
  6  9  1  0
  9 10  1  0
 10 11  1  0
  9 12  1  0
 12  3  1  0
  2 13  1  0
  4 14  1  0
  4 15  1  0
  5 16  1  0
  5 17  1  0
  7 18  1  0
  9 19  1  6
 10 20  1  0
 10 21  1  0
 11 22  1  0
 12 23  1  0
 12 24  1  0
M  END
$$$$

     RDKit          3D

 24 24  0  0  0  0  0  0  0  0999 V2000
    3.5696    0.8269    0.4136 O   0  0  0  0  0  0  0  0  0  0  0  0
    3.0515   -0.1847   -0.1107 C   0  0  0  0  0  0  0  0  0  0  0  0
    1.6425   -0.3727   -0.0660 N   0  0  0  0  0  0  0  0  0  0  0  0
    1.0279   -1.5374   -0.6677 C   0  0  0  0  0  0  0  0  0  0  0  0
   -0.3485   -1.7491   -0.1031 C   0  0  0  0  0  0  0  0  0  0  0  0
   -1.1263   -0.5329   -0.2966 N   0  0  0  0  0  0  0  0  0  0  0  0
   -2.4898   -0.6544   -0.6431 C   0  0  0  0  0  0  0  0  0  0  0  0
   -3.0231   -1.7747   -0.7820 O   0  0  0  0  0  0  0  0  0  0  0  0
   -0.5295    0.7583   -0.1409 C   0  0  1  0  0  0  0  0  0  0  0  0
   -1.3887    1.6376    0.7626 C   0  0  0  0  0  0  0  0  0  0  0  0
   -0.7716    2.8896    0.8895 O   0  0  0  0  0  0  0  0  0  0  0  0
    0.8088    0.5958    0.5799 C   0  0  0  0  0  0  0  0  0  0  0  0
    3.6660   -0.9386   -0.6098 H   0  0  0  0  0  0  0  0  0  0  0  0
    1.0161   -1.3976   -1.7549 H   0  0  0  0  0  0  0  0  0  0  0  0
    1.6298   -2.4324   -0.4103 H   0  0  0  0  0  0  0  0  0  0  0  0
   -0.2400   -1.8863    0.9987 H   0  0  0  0  0  0  0  0  0  0  0  0
   -0.8487   -2.5865   -0.5925 H   0  0  0  0  0  0  0  0  0  0  0  0
   -3.0680    0.2423   -0.7870 H   0  0  0  0  0  0  0  0  0  0  0  0
   -0.3810    1.2468   -1.1170 H   0  0  0  0  0  0  0  0  0  0  0  0
   -1.4628    1.1841    1.7568 H   0  0  0  0  0  0  0  0  0  0  0  0
   -2.3811    1.8341    0.2928 H   0  0  0  0  0  0  0  0  0  0  0  0
   -0.2566    3.0783    0.0734 H   0  0  0  0  0  0  0  0  0  0  0  0
    1.3345    1.5421    0.7066 H   0  0  0  0  0  0  0  0  0  0  0  0
    0.5689    0.2115    1.6079 H   0  0  0  0  0  0  0  0  0  0  0  0
  1  2  2  0
  2  3  1  0
  3  4  1  0
  4  5  1  0
  5  6  1  0
  6  7  1  0
  7  8  2  0
  6  9  1  0
  9 10  1  0
 10 11  1  0
  9 12  1  0
 12  3  1  0
  2 13  1  0
  4 14  1  0
  4 15  1  0
  5 16  1  0
  5 17  1  0
  7 18  1  0
  9 19  1  6
 10 20  1  0
 10 21  1  0
 11 22  1  0
 12 23  1  0
 12 24  1  0
M  END
$$$$
