
     RDKit          3D

 27 27  0  0  0  0  0  0  0  0999 V2000
   -4.5342   -1.0195    0.1199 C   0  0  0  0  0  0  0  0  0  0  0  0
   -3.2005   -0.8423    0.4988 O   0  0  0  0  0  0  0  0  0  0  0  0
   -2.8308    0.4710    0.2037 C   0  0  0  0  0  0  0  0  0  0  0  0
   -1.3997    0.7417    0.5867 C   0  0  0  0  0  0  0  0  0  0  0  0
   -0.4711   -0.1233   -0.1095 N   0  0  0  0  0  0  0  0  0  0  0  0
    0.8519    0.1988    0.3149 C   0  0  1  0  0  0  0  0  0  0  0  0
    1.8631   -0.8717   -0.1236 C   0  0  0  0  0  0  0  0  0  0  0  0
    2.9468   -0.1444   -0.6552 N   0  0  0  0  0  0  0  0  0  0  0  0
    4.2527   -0.6571   -0.3555 C   0  0  0  0  0  0  0  0  0  0  0  0
    2.7978    1.2042   -0.4251 N   0  0  0  0  0  0  0  0  0  0  0  0
    1.3947    1.4455   -0.3044 C   0  0  0  0  0  0  0  0  0  0  0  0
    0.7693    2.5017   -0.6561 O   0  0  0  0  0  0  0  0  0  0  0  0
   -5.1519   -0.2965    0.6964 H   0  0  0  0  0  0  0  0  0  0  0  0
   -4.6081   -0.7248   -0.9572 H   0  0  0  0  0  0  0  0  0  0  0  0
   -4.8708   -2.0557    0.2789 H   0  0  0  0  0  0  0  0  0  0  0  0
   -3.4666    1.1751    0.7809 H   0  0  0  0  0  0  0  0  0  0  0  0
   -2.9667    0.7208   -0.8667 H   0  0  0  0  0  0  0  0  0  0  0  0
   -1.1891    1.8020    0.3624 H   0  0  0  0  0  0  0  0  0  0  0  0
   -1.2749    0.6326    1.6907 H   0  0  0  0  0  0  0  0  0  0  0  0
   -0.6840   -1.1001    0.1322 H   0  0  0  0  0  0  0  0  0  0  0  0
    0.8545    0.2703    1.4265 H   0  0  0  0  0  0  0  0  0  0  0  0
    2.0909   -1.5182    0.7479 H   0  0  0  0  0  0  0  0  0  0  0  0
    1.4103   -1.5173   -0.9146 H   0  0  0  0  0  0  0  0  0  0  0  0
    4.7779   -0.8104   -1.3231 H   0  0  0  0  0  0  0  0  0  0  0  0
    4.2552   -1.5749    0.2506 H   0  0  0  0  0  0  0  0  0  0  0  0
    4.8369    0.1639    0.1543 H   0  0  0  0  0  0  0  0  0  0  0  0
    3.5466    1.9286   -0.3505 H   0  0  0  0  0  0  0  0  0  0  0  0
  1  2  1  0
  2  3  1  0
  3  4  1  0
  4  5  1  0
  5  6  1  0
  6  7  1  0
  7  8  1  0
  8  9  1  0
  8 10  1  0
 10 11  1  0
 11 12  2  0
 11  6  1  0
  1 13  1  0
  1 14  1  0
  1 15  1  0
  3 16  1  0
  3 17  1  0
  4 18  1  0
  4 19  1  0
  5 20  1  0
  6 21  1  1
  7 22  1  0
  7 23  1  0
  9 24  1  0
  9 25  1  0
  9 26  1  0
 10 27  1  0
M  END
$$$$

     RDKit          3D

 27 27  0  0  0  0  0  0  0  0999 V2000
    4.7074   -1.0580   -0.0569 C   0  0  0  0  0  0  0  0  0  0  0  0
    3.4698   -0.7505   -0.6203 O   0  0  0  0  0  0  0  0  0  0  0  0
    2.6181   -0.1698    0.2981 C   0  0  0  0  0  0  0  0  0  0  0  0
    1.2955    0.1285   -0.3792 C   0  0  0  0  0  0  0  0  0  0  0  0
    0.3626    0.7440    0.5401 N   0  0  0  0  0  0  0  0  0  0  0  0
   -0.8527    1.0133   -0.1469 C   0  0  1  0  0  0  0  0  0  0  0  0
   -1.5820   -0.2068   -0.6610 C   0  0  0  0  0  0  0  0  0  0  0  0
   -2.8940    0.3381   -0.9297 N   0  0  0  0  0  0  0  0  0  0  0  0
   -3.8923   -0.6902   -1.0730 C   0  0  0  0  0  0  0  0  0  0  0  0
   -3.1208    1.1709    0.1656 N   0  0  0  0  0  0  0  0  0  0  0  0
   -1.8934    1.6287    0.7227 C   0  0  0  0  0  0  0  0  0  0  0  0
   -1.7418    2.3821    1.7235 O   0  0  0  0  0  0  0  0  0  0  0  0
    4.5842   -1.7755    0.7721 H   0  0  0  0  0  0  0  0  0  0  0  0
    5.4104   -1.4446   -0.8187 H   0  0  0  0  0  0  0  0  0  0  0  0
    5.1525   -0.1108    0.3280 H   0  0  0  0  0  0  0  0  0  0  0  0
    2.4748   -0.8666    1.1385 H   0  0  0  0  0  0  0  0  0  0  0  0
    3.0701    0.7507    0.7216 H   0  0  0  0  0  0  0  0  0  0  0  0
    1.4629    0.8575   -1.2169 H   0  0  0  0  0  0  0  0  0  0  0  0
    0.8943   -0.8072   -0.8333 H   0  0  0  0  0  0  0  0  0  0  0  0
    0.2405    0.2116    1.4286 H   0  0  0  0  0  0  0  0  0  0  0  0
   -0.6550    1.7041   -1.0123 H   0  0  0  0  0  0  0  0  0  0  0  0
   -1.1074   -0.6076   -1.5887 H   0  0  0  0  0  0  0  0  0  0  0  0
   -1.6756   -0.9636    0.1238 H   0  0  0  0  0  0  0  0  0  0  0  0
   -4.9135   -0.3057   -1.0741 H   0  0  0  0  0  0  0  0  0  0  0  0
   -3.6620   -1.1910   -2.0552 H   0  0  0  0  0  0  0  0  0  0  0  0
   -3.7091   -1.4584   -0.2952 H   0  0  0  0  0  0  0  0  0  0  0  0
   -4.0437    1.4768    0.5969 H   0  0  0  0  0  0  0  0  0  0  0  0
  1  2  1  0
  2  3  1  0
  3  4  1  0
  4  5  1  0
  5  6  1  0
  6  7  1  0
  7  8  1  0
  8  9  1  0
  8 10  1  0
 10 11  1  0
 11 12  2  0
 11  6  1  0
  1 13  1  0
  1 14  1  0
  1 15  1  0
  3 16  1  0
  3 17  1  0
  4 18  1  0
  4 19  1  0
  5 20  1  0
  6 21  1  6
  7 22  1  0
  7 23  1  0
  9 24  1  0
  9 25  1  0
  9 26  1  0
 10 27  1  0
M  END
$$$$

     RDKit          3D

 27 27  0  0  0  0  0  0  0  0999 V2000
   -3.8363    0.3043   -0.9928 C   0  0  0  0  0  0  0  0  0  0  0  0
   -2.9067   -0.6979   -1.0944 O   0  0  0  0  0  0  0  0  0  0  0  0
   -2.2923   -0.9602    0.0990 C   0  0  0  0  0  0  0  0  0  0  0  0
   -1.5597    0.2112    0.6830 C   0  0  0  0  0  0  0  0  0  0  0  0
   -0.5456    0.6669   -0.2021 N   0  0  0  0  0  0  0  0  0  0  0  0
    0.5200   -0.2759   -0.3143 C   0  0  1  0  0  0  0  0  0  0  0  0
    1.6498    0.2321   -1.1961 C   0  0  0  0  0  0  0  0  0  0  0  0
    2.6725    0.7600   -0.3277 N   0  0  0  0  0  0  0  0  0  0  0  0
    3.9147    0.0149   -0.5476 C   0  0  0  0  0  0  0  0  0  0  0  0
    2.2304    0.5657    0.9923 N   0  0  0  0  0  0  0  0  0  0  0  0
    1.2353   -0.4532    0.9936 C   0  0  0  0  0  0  0  0  0  0  0  0
    1.0446   -1.2833    1.9066 O   0  0  0  0  0  0  0  0  0  0  0  0
   -3.4108    1.2733   -0.6687 H   0  0  0  0  0  0  0  0  0  0  0  0
   -4.3872    0.4400   -1.9656 H   0  0  0  0  0  0  0  0  0  0  0  0
   -4.6168    0.0339   -0.2307 H   0  0  0  0  0  0  0  0  0  0  0  0
   -1.6349   -1.8574   -0.0439 H   0  0  0  0  0  0  0  0  0  0  0  0
   -3.0995   -1.3269    0.8097 H   0  0  0  0  0  0  0  0  0  0  0  0
   -2.2807    1.0130    0.9681 H   0  0  0  0  0  0  0  0  0  0  0  0
   -1.1481   -0.1431    1.6678 H   0  0  0  0  0  0  0  0  0  0  0  0
   -0.2411    1.6314    0.0384 H   0  0  0  0  0  0  0  0  0  0  0  0
    0.1464   -1.2250   -0.7043 H   0  0  0  0  0  0  0  0  0  0  0  0
    2.0441   -0.5901   -1.8501 H   0  0  0  0  0  0  0  0  0  0  0  0
    1.2913    1.0268   -1.8743 H   0  0  0  0  0  0  0  0  0  0  0  0
    4.1559    0.1013   -1.6287 H   0  0  0  0  0  0  0  0  0  0  0  0
    4.6832    0.5073    0.0651 H   0  0  0  0  0  0  0  0  0  0  0  0
    3.7864   -1.0614   -0.2350 H   0  0  0  0  0  0  0  0  0  0  0  0
    2.5853    1.0922    1.8281 H   0  0  0  0  0  0  0  0  0  0  0  0
  1  2  1  0
  2  3  1  0
  3  4  1  0
  4  5  1  0
  5  6  1  0
  6  7  1  0
  7  8  1  0
  8  9  1  0
  8 10  1  0
 10 11  1  0
 11 12  2  0
 11  6  1  0
  1 13  1  0
  1 14  1  0
  1 15  1  0
  3 16  1  0
  3 17  1  0
  4 18  1  0
  4 19  1  0
  5 20  1  0
  6 21  1  6
  7 22  1  0
  7 23  1  0
  9 24  1  0
  9 25  1  0
  9 26  1  0
 10 27  1  0
M  END
$$$$

     RDKit          3D

 27 27  0  0  0  0  0  0  0  0999 V2000
   -4.4301    0.1571   -1.1732 C   0  0  0  0  0  0  0  0  0  0  0  0
   -3.0682    0.4498   -1.0567 O   0  0  0  0  0  0  0  0  0  0  0  0
   -2.6017    0.1726    0.2258 C   0  0  0  0  0  0  0  0  0  0  0  0
   -1.1289    0.5073    0.2669 C   0  0  0  0  0  0  0  0  0  0  0  0
   -0.4477   -0.3081   -0.7206 N   0  0  0  0  0  0  0  0  0  0  0  0
    0.9691   -0.0062   -0.6053 C   0  0  1  0  0  0  0  0  0  0  0  0
    1.5032   -0.4145    0.7519 C   0  0  0  0  0  0  0  0  0  0  0  0
    2.8951   -0.6458    0.4920 N   0  0  0  0  0  0  0  0  0  0  0  0
    3.7039    0.5501    0.4440 C   0  0  0  0  0  0  0  0  0  0  0  0
    2.9108   -1.2478   -0.7601 N   0  0  0  0  0  0  0  0  0  0  0  0
    1.8064   -0.7990   -1.5250 C   0  0  0  0  0  0  0  0  0  0  0  0
    1.5901   -1.0282   -2.7226 O   0  0  0  0  0  0  0  0  0  0  0  0
   -5.0111    0.7669   -0.4568 H   0  0  0  0  0  0  0  0  0  0  0  0
   -4.6177   -0.9117   -0.9374 H   0  0  0  0  0  0  0  0  0  0  0  0
   -4.7488    0.3630   -2.2085 H   0  0  0  0  0  0  0  0  0  0  0  0
   -3.1645    0.7465    0.9983 H   0  0  0  0  0  0  0  0  0  0  0  0
   -2.7595   -0.9108    0.4091 H   0  0  0  0  0  0  0  0  0  0  0  0
   -1.0053    1.5917    0.0219 H   0  0  0  0  0  0  0  0  0  0  0  0
   -0.7006    0.3565    1.2756 H   0  0  0  0  0  0  0  0  0  0  0  0
   -0.7381   -0.1142   -1.6815 H   0  0  0  0  0  0  0  0  0  0  0  0
    1.0984    1.0922   -0.7030 H   0  0  0  0  0  0  0  0  0  0  0  0
    1.3557    0.3762    1.5224 H   0  0  0  0  0  0  0  0  0  0  0  0
    1.0756   -1.3931    1.0702 H   0  0  0  0  0  0  0  0  0  0  0  0
    4.7711    0.2512    0.5397 H   0  0  0  0  0  0  0  0  0  0  0  0
    3.6177    1.0895   -0.5175 H   0  0  0  0  0  0  0  0  0  0  0  0
    3.4744    1.2398    1.2865 H   0  0  0  0  0  0  0  0  0  0  0  0
    3.6504   -1.9309   -1.0599 H   0  0  0  0  0  0  0  0  0  0  0  0
  1  2  1  0
  2  3  1  0
  3  4  1  0
  4  5  1  0
  5  6  1  0
  6  7  1  0
  7  8  1  0
  8  9  1  0
  8 10  1  0
 10 11  1  0
 11 12  2  0
 11  6  1  0
  1 13  1  0
  1 14  1  0
  1 15  1  0
  3 16  1  0
  3 17  1  0
  4 18  1  0
  4 19  1  0
  5 20  1  0
  6 21  1  6
  7 22  1  0
  7 23  1  0
  9 24  1  0
  9 25  1  0
  9 26  1  0
 10 27  1  0
M  END
$$$$

     RDKit          3D

 27 27  0  0  0  0  0  0  0  0999 V2000
    3.8819    1.5175   -0.1051 C   0  0  0  0  0  0  0  0  0  0  0  0
    3.3252    0.2763   -0.3542 O   0  0  0  0  0  0  0  0  0  0  0  0
    1.9038    0.3240   -0.3084 C   0  0  0  0  0  0  0  0  0  0  0  0
    1.4546   -1.0661   -0.5759 C   0  0  0  0  0  0  0  0  0  0  0  0
    0.1032   -1.3984   -0.6459 N   0  0  0  0  0  0  0  0  0  0  0  0
   -0.7090   -1.2661    0.4706 C   0  0  1  0  0  0  0  0  0  0  0  0
   -1.0843    0.1467    0.8131 C   0  0  0  0  0  0  0  0  0  0  0  0
   -2.2651    0.3337   -0.0740 N   0  0  0  0  0  0  0  0  0  0  0  0
   -3.0187    1.4961    0.2526 C   0  0  0  0  0  0  0  0  0  0  0  0
   -2.9346   -0.8624    0.0260 N   0  0  0  0  0  0  0  0  0  0  0  0
   -2.0328   -1.9252    0.2832 C   0  0  0  0  0  0  0  0  0  0  0  0
   -2.2146   -3.1687    0.3579 O   0  0  0  0  0  0  0  0  0  0  0  0
    3.6159    1.9290    0.8974 H   0  0  0  0  0  0  0  0  0  0  0  0
    3.5801    2.2276   -0.8920 H   0  0  0  0  0  0  0  0  0  0  0  0
    4.9819    1.3969   -0.1553 H   0  0  0  0  0  0  0  0  0  0  0  0
    1.4653    1.0654   -0.9435 H   0  0  0  0  0  0  0  0  0  0  0  0
    1.6785    0.5359    0.7910 H   0  0  0  0  0  0  0  0  0  0  0  0
    1.9165   -1.3869   -1.5958 H   0  0  0  0  0  0  0  0  0  0  0  0
    2.0316   -1.7632    0.1343 H   0  0  0  0  0  0  0  0  0  0  0  0
   -0.0129   -2.2619   -1.2201 H   0  0  0  0  0  0  0  0  0  0  0  0
   -0.2210   -1.7448    1.4074 H   0  0  0  0  0  0  0  0  0  0  0  0
   -0.3692    0.9282    0.5767 H   0  0  0  0  0  0  0  0  0  0  0  0
   -1.4229    0.2284    1.8926 H   0  0  0  0  0  0  0  0  0  0  0  0
   -2.8869    1.8038    1.3060 H   0  0  0  0  0  0  0  0  0  0  0  0
   -4.0992    1.2493    0.0487 H   0  0  0  0  0  0  0  0  0  0  0  0
   -2.6867    2.3669   -0.3501 H   0  0  0  0  0  0  0  0  0  0  0  0
   -3.9803   -0.9820   -0.0776 H   0  0  0  0  0  0  0  0  0  0  0  0
  1  2  1  0
  2  3  1  0
  3  4  1  0
  4  5  1  0
  5  6  1  0
  6  7  1  0
  7  8  1  0
  8  9  1  0
  8 10  1  0
 10 11  1  0
 11 12  2  0
 11  6  1  0
  1 13  1  0
  1 14  1  0
  1 15  1  0
  3 16  1  0
  3 17  1  0
  4 18  1  0
  4 19  1  0
  5 20  1  0
  6 21  1  1
  7 22  1  0
  7 23  1  0
  9 24  1  0
  9 25  1  0
  9 26  1  0
 10 27  1  0
M  END
$$$$

     RDKit          3D

 27 27  0  0  0  0  0  0  0  0999 V2000
   -4.5101   -0.3862    0.6327 C   0  0  0  0  0  0  0  0  0  0  0  0
   -3.3928   -0.7715   -0.1002 O   0  0  0  0  0  0  0  0  0  0  0  0
   -2.3754    0.1788   -0.0440 C   0  0  0  0  0  0  0  0  0  0  0  0
   -1.2455   -0.3527   -0.8964 C   0  0  0  0  0  0  0  0  0  0  0  0
   -0.1241    0.4876   -0.9620 N   0  0  0  0  0  0  0  0  0  0  0  0
    0.6990    0.6828    0.1476 C   0  0  1  0  0  0  0  0  0  0  0  0
    1.4485   -0.5566    0.5973 C   0  0  0  0  0  0  0  0  0  0  0  0
    2.8338   -0.1600    0.7744 N   0  0  0  0  0  0  0  0  0  0  0  0
    3.7144   -0.7420   -0.2286 C   0  0  0  0  0  0  0  0  0  0  0  0
    2.8864    1.2282    0.6247 N   0  0  0  0  0  0  0  0  0  0  0  0
    1.7877    1.6413   -0.1818 C   0  0  0  0  0  0  0  0  0  0  0  0
    1.7571    2.6093   -0.9933 O   0  0  0  0  0  0  0  0  0  0  0  0
   -5.2618   -1.1917    0.5370 H   0  0  0  0  0  0  0  0  0  0  0  0
   -4.2259   -0.3180    1.7023 H   0  0  0  0  0  0  0  0  0  0  0  0
   -4.9465    0.5630    0.2533 H   0  0  0  0  0  0  0  0  0  0  0  0
   -2.1011    0.3136    1.0038 H   0  0  0  0  0  0  0  0  0  0  0  0
   -2.7885    1.1251   -0.4971 H   0  0  0  0  0  0  0  0  0  0  0  0
   -1.6546   -0.4946   -1.9146 H   0  0  0  0  0  0  0  0  0  0  0  0
   -0.9853   -1.3558   -0.4983 H   0  0  0  0  0  0  0  0  0  0  0  0
    0.2520    0.7115   -1.8913 H   0  0  0  0  0  0  0  0  0  0  0  0
    0.1888    1.1297    1.0372 H   0  0  0  0  0  0  0  0  0  0  0  0
    1.4264   -1.3559   -0.1990 H   0  0  0  0  0  0  0  0  0  0  0  0
    1.0904   -0.9428    1.5634 H   0  0  0  0  0  0  0  0  0  0  0  0
    4.7520   -0.8656    0.1831 H   0  0  0  0  0  0  0  0  0  0  0  0
    3.7963   -0.1076   -1.1376 H   0  0  0  0  0  0  0  0  0  0  0  0
    3.3761   -1.7337   -0.5491 H   0  0  0  0  0  0  0  0  0  0  0  0
    3.6024    1.8337    1.0366 H   0  0  0  0  0  0  0  0  0  0  0  0
  1  2  1  0
  2  3  1  0
  3  4  1  0
  4  5  1  0
  5  6  1  0
  6  7  1  0
  7  8  1  0
  8  9  1  0
  8 10  1  0
 10 11  1  0
 11 12  2  0
 11  6  1  0
  1 13  1  0
  1 14  1  0
  1 15  1  0
  3 16  1  0
  3 17  1  0
  4 18  1  0
  4 19  1  0
  5 20  1  0
  6 21  1  1
  7 22  1  0
  7 23  1  0
  9 24  1  0
  9 25  1  0
  9 26  1  0
 10 27  1  0
M  END
$$$$

     RDKit          3D

 27 27  0  0  0  0  0  0  0  0999 V2000
   -3.4121    0.7975    0.5266 C   0  0  0  0  0  0  0  0  0  0  0  0
   -3.6654   -0.4894    0.1752 O   0  0  0  0  0  0  0  0  0  0  0  0
   -2.8495   -1.1266   -0.6842 C   0  0  0  0  0  0  0  0  0  0  0  0
   -1.4136   -1.3330   -0.3679 C   0  0  0  0  0  0  0  0  0  0  0  0
   -0.6512   -0.1212   -0.1589 N   0  0  0  0  0  0  0  0  0  0  0  0
    0.7874   -0.3788   -0.3325 C   0  0  1  0  0  0  0  0  0  0  0  0
    1.4733    0.9569   -0.4411 C   0  0  0  0  0  0  0  0  0  0  0  0
    2.3158    1.1370    0.6905 N   0  0  0  0  0  0  0  0  0  0  0  0
    3.7038    1.2391    0.2622 C   0  0  0  0  0  0  0  0  0  0  0  0
    2.1388    0.0210    1.5115 N   0  0  0  0  0  0  0  0  0  0  0  0
    1.4175   -0.9948    0.8388 C   0  0  0  0  0  0  0  0  0  0  0  0
    1.3553   -2.2107    1.2182 O   0  0  0  0  0  0  0  0  0  0  0  0
   -3.3120    1.4928   -0.3505 H   0  0  0  0  0  0  0  0  0  0  0  0
   -4.4064    1.1756    0.9725 H   0  0  0  0  0  0  0  0  0  0  0  0
   -2.6921    0.9266    1.3068 H   0  0  0  0  0  0  0  0  0  0  0  0
   -3.2984   -2.1595   -0.8508 H   0  0  0  0  0  0  0  0  0  0  0  0
   -2.9480   -0.6852   -1.7453 H   0  0  0  0  0  0  0  0  0  0  0  0
   -1.2945   -1.9935    0.5520 H   0  0  0  0  0  0  0  0  0  0  0  0
   -0.8746   -1.9092   -1.1522 H   0  0  0  0  0  0  0  0  0  0  0  0
   -0.6843    0.1185    0.8962 H   0  0  0  0  0  0  0  0  0  0  0  0
    0.9462   -0.9986   -1.2488 H   0  0  0  0  0  0  0  0  0  0  0  0
    0.7096    1.7757   -0.5418 H   0  0  0  0  0  0  0  0  0  0  0  0
    2.0242    0.9847   -1.4235 H   0  0  0  0  0  0  0  0  0  0  0  0
    4.0762    0.2325    0.0017 H   0  0  0  0  0  0  0  0  0  0  0  0
    4.2788    1.6592    1.1016 H   0  0  0  0  0  0  0  0  0  0  0  0
    3.7558    1.8684   -0.6564 H   0  0  0  0  0  0  0  0  0  0  0  0
    2.5194    0.0150    2.4905 H   0  0  0  0  0  0  0  0  0  0  0  0
  1  2  1  0
  2  3  1  0
  3  4  1  0
  4  5  1  0
  5  6  1  0
  6  7  1  0
  7  8  1  0
  8  9  1  0
  8 10  1  0
 10 11  1  0
 11 12  2  0
 11  6  1  0
  1 13  1  0
  1 14  1  0
  1 15  1  0
  3 16  1  0
  3 17  1  0
  4 18  1  0
  4 19  1  0
  5 20  1  0
  6 21  1  6
  7 22  1  0
  7 23  1  0
  9 24  1  0
  9 25  1  0
  9 26  1  0
 10 27  1  0
M  END
$$$$

     RDKit          3D

 27 27  0  0  0  0  0  0  0  0999 V2000
   -4.4379    1.0037   -0.0767 C   0  0  0  0  0  0  0  0  0  0  0  0
   -3.2015    0.5599   -0.5521 O   0  0  0  0  0  0  0  0  0  0  0  0
   -2.6945   -0.3032    0.4379 C   0  0  0  0  0  0  0  0  0  0  0  0
   -1.3436   -0.8527    0.0305 C   0  0  0  0  0  0  0  0  0  0  0  0
   -0.3977    0.2220   -0.1616 N   0  0  0  0  0  0  0  0  0  0  0  0
    0.8775   -0.3096   -0.5483 C   0  0  1  0  0  0  0  0  0  0  0  0
    1.8920    0.7788   -0.7633 C   0  0  0  0  0  0  0  0  0  0  0  0
    2.8314    0.7230    0.3278 N   0  0  0  0  0  0  0  0  0  0  0  0
    4.0927    0.2021   -0.2240 C   0  0  0  0  0  0  0  0  0  0  0  0
    2.3766   -0.2542    1.2181 N   0  0  0  0  0  0  0  0  0  0  0  0
    1.4654   -1.1017    0.5445 C   0  0  0  0  0  0  0  0  0  0  0  0
    1.1812   -2.3122    0.7995 O   0  0  0  0  0  0  0  0  0  0  0  0
   -5.0598    0.0912    0.0581 H   0  0  0  0  0  0  0  0  0  0  0  0
   -4.8882    1.6803   -0.8213 H   0  0  0  0  0  0  0  0  0  0  0  0
   -4.2573    1.4858    0.9019 H   0  0  0  0  0  0  0  0  0  0  0  0
   -2.6276    0.2780    1.3658 H   0  0  0  0  0  0  0  0  0  0  0  0
   -3.4060   -1.1243    0.5293 H   0  0  0  0  0  0  0  0  0  0  0  0
   -1.0070   -1.4982    0.8727 H   0  0  0  0  0  0  0  0  0  0  0  0
   -1.4460   -1.4080   -0.9176 H   0  0  0  0  0  0  0  0  0  0  0  0
   -0.2779    0.7693    0.7314 H   0  0  0  0  0  0  0  0  0  0  0  0
    0.7223   -0.9090   -1.4714 H   0  0  0  0  0  0  0  0  0  0  0  0
    2.3769    0.6007   -1.7465 H   0  0  0  0  0  0  0  0  0  0  0  0
    1.4181    1.7826   -0.8269 H   0  0  0  0  0  0  0  0  0  0  0  0
    4.5630    1.0265   -0.7711 H   0  0  0  0  0  0  0  0  0  0  0  0
    3.8816   -0.6659   -0.8926 H   0  0  0  0  0  0  0  0  0  0  0  0
    4.6982   -0.1289    0.6308 H   0  0  0  0  0  0  0  0  0  0  0  0
    2.6680   -0.3359    2.2121 H   0  0  0  0  0  0  0  0  0  0  0  0
  1  2  1  0
  2  3  1  0
  3  4  1  0
  4  5  1  0
  5  6  1  0
  6  7  1  0
  7  8  1  0
  8  9  1  0
  8 10  1  0
 10 11  1  0
 11 12  2  0
 11  6  1  0
  1 13  1  0
  1 14  1  0
  1 15  1  0
  3 16  1  0
  3 17  1  0
  4 18  1  0
  4 19  1  0
  5 20  1  0
  6 21  1  6
  7 22  1  0
  7 23  1  0
  9 24  1  0
  9 25  1  0
  9 26  1  0
 10 27  1  0
M  END
$$$$
