
     RDKit          3D

 24 23  0  0  0  0  0  0  0  0999 V2000
    4.6201   -0.5165    0.6125 C   0  0  0  0  0  0  0  0  0  0  0  0
    3.2404   -0.2203    0.8584 N   0  0  0  0  0  0  0  0  0  0  0  0
    2.3573    0.0530   -0.2152 C   0  0  0  0  0  0  0  0  0  0  0  0
    2.7524    0.0449   -1.4148 O   0  0  0  0  0  0  0  0  0  0  0  0
    0.9718    0.3535   -0.0146 N   0  0  0  0  0  0  0  0  0  0  0  0
    0.0892    0.6291   -1.1232 C   0  0  0  0  0  0  0  0  0  0  0  0
   -1.2950    0.9045   -0.5578 C   0  0  0  0  0  0  0  0  0  0  0  0
   -1.7967   -0.2325    0.1858 N   0  0  0  0  0  0  0  0  0  0  0  0
   -3.3632    0.1760    0.7835 S   0  0  0  0  0  6  0  0  0  0  0  0
   -4.4972   -0.3159   -0.4483 N   0  0  0  0  0  0  0  0  0  0  0  0
   -3.4185    1.6660    0.9451 O   0  0  0  0  0  0  0  0  0  0  0  0
   -3.6612   -0.5271    2.0771 O   0  0  0  0  0  0  0  0  0  0  0  0
    5.2928    0.3462    0.7521 H   0  0  0  0  0  0  0  0  0  0  0  0
    4.8939   -1.3818    1.2654 H   0  0  0  0  0  0  0  0  0  0  0  0
    4.7616   -0.8503   -0.4523 H   0  0  0  0  0  0  0  0  0  0  0  0
    2.8759   -0.2050    1.8497 H   0  0  0  0  0  0  0  0  0  0  0  0
    0.6048    0.3718    0.9415 H   0  0  0  0  0  0  0  0  0  0  0  0
    0.4418    1.5470   -1.6763 H   0  0  0  0  0  0  0  0  0  0  0  0
    0.0699   -0.2043   -1.8539 H   0  0  0  0  0  0  0  0  0  0  0  0
   -1.9374    1.1488   -1.4285 H   0  0  0  0  0  0  0  0  0  0  0  0
   -1.2857    1.8113    0.0793 H   0  0  0  0  0  0  0  0  0  0  0  0
   -1.8299   -1.0649   -0.4433 H   0  0  0  0  0  0  0  0  0  0  0  0
   -4.4224   -1.3563   -0.5150 H   0  0  0  0  0  0  0  0  0  0  0  0
   -5.4648   -0.0747   -0.2072 H   0  0  0  0  0  0  0  0  0  0  0  0
  1  2  1  0
  2  3  1  0
  3  4  2  0
  3  5  1  0
  5  6  1  0
  6  7  1  0
  7  8  1  0
  8  9  1  0
  9 10  1  0
  9 11  2  0
  9 12  2  0
  1 13  1  0
  1 14  1  0
  1 15  1  0
  2 16  1  0
  5 17  1  0
  6 18  1  0
  6 19  1  0
  7 20  1  0
  7 21  1  0
  8 22  1  0
 10 23  1  0
 10 24  1  0
M  END
$$$$

     RDKit          3D

 24 23  0  0  0  0  0  0  0  0999 V2000
    4.1969    0.3722    0.7267 C   0  0  0  0  0  0  0  0  0  0  0  0
    3.3409   -0.6614    0.1736 N   0  0  0  0  0  0  0  0  0  0  0  0
    2.0076   -0.3155   -0.2242 C   0  0  0  0  0  0  0  0  0  0  0  0
    1.5985    0.8620   -0.0922 O   0  0  0  0  0  0  0  0  0  0  0  0
    1.1213   -1.2760   -0.7709 N   0  0  0  0  0  0  0  0  0  0  0  0
   -0.2218   -0.9831   -1.1838 C   0  0  0  0  0  0  0  0  0  0  0  0
   -1.1033   -0.4623   -0.0691 C   0  0  0  0  0  0  0  0  0  0  0  0
   -2.4104   -0.2193   -0.6447 N   0  0  0  0  0  0  0  0  0  0  0  0
   -3.5377    0.3771    0.4877 S   0  0  0  0  0  6  0  0  0  0  0  0
   -3.5504    2.0944    0.5811 N   0  0  0  0  0  0  0  0  0  0  0  0
   -4.9187   -0.0503    0.0379 O   0  0  0  0  0  0  0  0  0  0  0  0
   -3.3050   -0.2555    1.8304 O   0  0  0  0  0  0  0  0  0  0  0  0
    4.9285    0.6938   -0.0504 H   0  0  0  0  0  0  0  0  0  0  0  0
    3.5918    1.2694    0.9866 H   0  0  0  0  0  0  0  0  0  0  0  0
    4.7110   -0.0406    1.6264 H   0  0  0  0  0  0  0  0  0  0  0  0
    3.6885   -1.6343    0.0681 H   0  0  0  0  0  0  0  0  0  0  0  0
    1.4739   -2.2469   -0.8750 H   0  0  0  0  0  0  0  0  0  0  0  0
   -0.7315   -1.8807   -1.5897 H   0  0  0  0  0  0  0  0  0  0  0  0
   -0.2488   -0.2304   -2.0052 H   0  0  0  0  0  0  0  0  0  0  0  0
   -1.1697   -1.1676    0.7766 H   0  0  0  0  0  0  0  0  0  0  0  0
   -0.6697    0.4911    0.2949 H   0  0  0  0  0  0  0  0  0  0  0  0
   -2.3331    0.3335   -1.5033 H   0  0  0  0  0  0  0  0  0  0  0  0
   -3.8354    2.4474   -0.3644 H   0  0  0  0  0  0  0  0  0  0  0  0
   -2.6232    2.4830    0.8780 H   0  0  0  0  0  0  0  0  0  0  0  0
  1  2  1  0
  2  3  1  0
  3  4  2  0
  3  5  1  0
  5  6  1  0
  6  7  1  0
  7  8  1  0
  8  9  1  0
  9 10  1  0
  9 11  2  0
  9 12  2  0
  1 13  1  0
  1 14  1  0
  1 15  1  0
  2 16  1  0
  5 17  1  0
  6 18  1  0
  6 19  1  0
  7 20  1  0
  7 21  1  0
  8 22  1  0
 10 23  1  0
 10 24  1  0
M  END
$$$$

     RDKit          3D

 24 23  0  0  0  0  0  0  0  0999 V2000
   -4.5237    0.3131   -0.1106 C   0  0  0  0  0  0  0  0  0  0  0  0
   -3.0973    0.5353    0.0977 N   0  0  0  0  0  0  0  0  0  0  0  0
   -2.1848   -0.5088    0.3820 C   0  0  0  0  0  0  0  0  0  0  0  0
   -2.6312   -1.6903    0.4584 O   0  0  0  0  0  0  0  0  0  0  0  0
   -0.8007   -0.3067    0.5859 N   0  0  0  0  0  0  0  0  0  0  0  0
    0.1189   -1.4004    0.8777 C   0  0  0  0  0  0  0  0  0  0  0  0
    1.5136   -0.7934    1.0319 C   0  0  0  0  0  0  0  0  0  0  0  0
    1.8140   -0.1471   -0.2417 N   0  0  0  0  0  0  0  0  0  0  0  0
    3.3801    0.5585   -0.1293 S   0  0  0  0  0  6  0  0  0  0  0  0
    3.2424    2.1659    0.4494 N   0  0  0  0  0  0  0  0  0  0  0  0
    4.1973   -0.3099    0.7913 O   0  0  0  0  0  0  0  0  0  0  0  0
    3.9733    0.5746   -1.5064 O   0  0  0  0  0  0  0  0  0  0  0  0
   -5.0281    0.3648    0.8792 H   0  0  0  0  0  0  0  0  0  0  0  0
   -4.9525    1.0478   -0.8247 H   0  0  0  0  0  0  0  0  0  0  0  0
   -4.7021   -0.7260   -0.4988 H   0  0  0  0  0  0  0  0  0  0  0  0
   -2.7262    1.5035    0.0360 H   0  0  0  0  0  0  0  0  0  0  0  0
   -0.4658    0.6982    0.5136 H   0  0  0  0  0  0  0  0  0  0  0  0
    0.1103   -2.1640    0.0738 H   0  0  0  0  0  0  0  0  0  0  0  0
   -0.2108   -1.8818    1.8081 H   0  0  0  0  0  0  0  0  0  0  0  0
    2.2099   -1.6541    1.2018 H   0  0  0  0  0  0  0  0  0  0  0  0
    1.5046   -0.0978    1.8756 H   0  0  0  0  0  0  0  0  0  0  0  0
    1.8955   -0.9376   -0.9455 H   0  0  0  0  0  0  0  0  0  0  0  0
    4.0835    2.7113    0.1265 H   0  0  0  0  0  0  0  0  0  0  0  0
    3.2799    2.1449    1.4818 H   0  0  0  0  0  0  0  0  0  0  0  0
  1  2  1  0
  2  3  1  0
  3  4  2  0
  3  5  1  0
  5  6  1  0
  6  7  1  0
  7  8  1  0
  8  9  1  0
  9 10  1  0
  9 11  2  0
  9 12  2  0
  1 13  1  0
  1 14  1  0
  1 15  1  0
  2 16  1  0
  5 17  1  0
  6 18  1  0
  6 19  1  0
  7 20  1  0
  7 21  1  0
  8 22  1  0
 10 23  1  0
 10 24  1  0
M  END
$$$$

     RDKit          3D

 24 23  0  0  0  0  0  0  0  0999 V2000
    4.3532    0.9982    0.1374 C   0  0  0  0  0  0  0  0  0  0  0  0
    3.0554    0.7299    0.7589 N   0  0  0  0  0  0  0  0  0  0  0  0
    2.2226   -0.2943    0.2335 C   0  0  0  0  0  0  0  0  0  0  0  0
    2.7179   -1.2786   -0.3158 O   0  0  0  0  0  0  0  0  0  0  0  0
    0.8007   -0.1909    0.3947 N   0  0  0  0  0  0  0  0  0  0  0  0
   -0.0540   -1.4255    0.2211 C   0  0  0  0  0  0  0  0  0  0  0  0
   -1.1039   -1.1059   -0.8251 C   0  0  0  0  0  0  0  0  0  0  0  0
   -2.3892   -1.0986   -0.1737 N   0  0  0  0  0  0  0  0  0  0  0  0
   -3.2693    0.2873   -0.8013 S   0  0  0  0  0  6  0  0  0  0  0  0
   -4.1539    0.8898    0.6069 N   0  0  0  0  0  0  0  0  0  0  0  0
   -2.2847    1.4143   -1.1139 O   0  0  0  0  0  0  0  0  0  0  0  0
   -4.1875   -0.0277   -1.8316 O   0  0  0  0  0  0  0  0  0  0  0  0
    4.1967    2.1011   -0.1813 H   0  0  0  0  0  0  0  0  0  0  0  0
    4.4557    0.4720   -0.8270 H   0  0  0  0  0  0  0  0  0  0  0  0
    5.1967    1.0045    0.7852 H   0  0  0  0  0  0  0  0  0  0  0  0
    2.6924    1.3683    1.4828 H   0  0  0  0  0  0  0  0  0  0  0  0
    0.3671    0.7368    0.6179 H   0  0  0  0  0  0  0  0  0  0  0  0
    0.5106   -2.2818    0.2375 H   0  0  0  0  0  0  0  0  0  0  0  0
   -0.5939   -1.3308    1.2429 H   0  0  0  0  0  0  0  0  0  0  0  0
   -0.9918   -2.1134   -1.4686 H   0  0  0  0  0  0  0  0  0  0  0  0
   -0.8881   -0.3289   -1.4218 H   0  0  0  0  0  0  0  0  0  0  0  0
   -2.4609   -1.2733    0.7583 H   0  0  0  0  0  0  0  0  0  0  0  0
   -3.5689    0.9530    1.4738 H   0  0  0  0  0  0  0  0  0  0  0  0
   -4.6229    1.7945    0.4376 H   0  0  0  0  0  0  0  0  0  0  0  0
  1  2  1  0
  2  3  1  0
  3  4  2  0
  3  5  1  0
  5  6  1  0
  6  7  1  0
  7  8  1  0
  8  9  1  0
  9 10  1  0
  9 11  2  0
  9 12  2  0
  1 13  1  0
  1 14  1  0
  1 15  1  0
  2 16  1  0
  5 17  1  0
  6 18  1  0
  6 19  1  0
  7 20  1  0
  7 21  1  0
  8 22  1  0
 10 23  1  0
 10 24  1  0
M  END
$$$$

     RDKit          3D

 24 23  0  0  0  0  0  0  0  0999 V2000
    3.4915    1.1729   -0.7461 C   0  0  0  0  0  0  0  0  0  0  0  0
    2.7832    0.1888    0.0507 N   0  0  0  0  0  0  0  0  0  0  0  0
    1.6083   -0.4713   -0.4352 C   0  0  0  0  0  0  0  0  0  0  0  0
    1.2131   -0.1617   -1.5867 O   0  0  0  0  0  0  0  0  0  0  0  0
    0.9075   -1.4322    0.3296 N   0  0  0  0  0  0  0  0  0  0  0  0
   -0.2827   -2.1081   -0.1458 C   0  0  0  0  0  0  0  0  0  0  0  0
   -1.3345   -1.0817   -0.4278 C   0  0  0  0  0  0  0  0  0  0  0  0
   -1.6117   -0.3678    0.8013 N   0  0  0  0  0  0  0  0  0  0  0  0
   -2.8168    0.8480    0.5955 S   0  0  0  0  0  6  0  0  0  0  0  0
   -2.0918    2.3503    0.1573 N   0  0  0  0  0  0  0  0  0  0  0  0
   -3.7799    0.4418   -0.4642 O   0  0  0  0  0  0  0  0  0  0  0  0
   -3.6055    1.0560    1.8786 O   0  0  0  0  0  0  0  0  0  0  0  0
    2.7804    1.9778   -1.0967 H   0  0  0  0  0  0  0  0  0  0  0  0
    4.3203    1.5748   -0.1676 H   0  0  0  0  0  0  0  0  0  0  0  0
    3.8026    0.6426   -1.6802 H   0  0  0  0  0  0  0  0  0  0  0  0
    3.1185   -0.0619    1.0055 H   0  0  0  0  0  0  0  0  0  0  0  0
    1.3137   -1.6318    1.2902 H   0  0  0  0  0  0  0  0  0  0  0  0
   -0.6212   -2.9017    0.5206 H   0  0  0  0  0  0  0  0  0  0  0  0
    0.0059   -2.5462   -1.1474 H   0  0  0  0  0  0  0  0  0  0  0  0
   -1.0757   -0.3883   -1.2274 H   0  0  0  0  0  0  0  0  0  0  0  0
   -2.3085   -1.5812   -0.7058 H   0  0  0  0  0  0  0  0  0  0  0  0
   -1.9568   -1.0751    1.4878 H   0  0  0  0  0  0  0  0  0  0  0  0
   -1.1243    2.4444    0.4859 H   0  0  0  0  0  0  0  0  0  0  0  0
   -2.7354    3.1115    0.4481 H   0  0  0  0  0  0  0  0  0  0  0  0
  1  2  1  0
  2  3  1  0
  3  4  2  0
  3  5  1  0
  5  6  1  0
  6  7  1  0
  7  8  1  0
  8  9  1  0
  9 10  1  0
  9 11  2  0
  9 12  2  0
  1 13  1  0
  1 14  1  0
  1 15  1  0
  2 16  1  0
  5 17  1  0
  6 18  1  0
  6 19  1  0
  7 20  1  0
  7 21  1  0
  8 22  1  0
 10 23  1  0
 10 24  1  0
M  END
$$$$

     RDKit          3D

 24 23  0  0  0  0  0  0  0  0999 V2000
    4.4095    1.1911   -0.6454 C   0  0  0  0  0  0  0  0  0  0  0  0
    2.9789    1.1560   -0.4341 N   0  0  0  0  0  0  0  0  0  0  0  0
    2.2682   -0.0272   -0.1273 C   0  0  0  0  0  0  0  0  0  0  0  0
    2.9026   -1.1307   -0.0273 O   0  0  0  0  0  0  0  0  0  0  0  0
    0.8625   -0.0574    0.0797 N   0  0  0  0  0  0  0  0  0  0  0  0
    0.1790   -1.2929    0.3917 C   0  0  0  0  0  0  0  0  0  0  0  0
   -1.3065   -1.0815    0.5683 C   0  0  0  0  0  0  0  0  0  0  0  0
   -1.9190   -0.5430   -0.6414 N   0  0  0  0  0  0  0  0  0  0  0  0
   -3.6026   -0.3416   -0.3326 S   0  0  0  0  0  6  0  0  0  0  0  0
   -3.9204    1.2199    0.3003 N   0  0  0  0  0  0  0  0  0  0  0  0
   -4.0485   -1.3423    0.7218 O   0  0  0  0  0  0  0  0  0  0  0  0
   -4.4304   -0.6292   -1.5520 O   0  0  0  0  0  0  0  0  0  0  0  0
    4.9382    0.4342   -0.0282 H   0  0  0  0  0  0  0  0  0  0  0  0
    4.6741    1.1165   -1.7296 H   0  0  0  0  0  0  0  0  0  0  0  0
    4.7560    2.2095   -0.3358 H   0  0  0  0  0  0  0  0  0  0  0  0
    2.4162    2.0364   -0.5058 H   0  0  0  0  0  0  0  0  0  0  0  0
    0.3634    0.8598   -0.0075 H   0  0  0  0  0  0  0  0  0  0  0  0
    0.3913   -2.0319   -0.3947 H   0  0  0  0  0  0  0  0  0  0  0  0
    0.5638   -1.6686    1.3609 H   0  0  0  0  0  0  0  0  0  0  0  0
   -1.4843   -0.3425    1.3711 H   0  0  0  0  0  0  0  0  0  0  0  0
   -1.8195   -2.0382    0.7719 H   0  0  0  0  0  0  0  0  0  0  0  0
   -1.7349   -1.1469   -1.4733 H   0  0  0  0  0  0  0  0  0  0  0  0
   -3.0114    1.6058    0.6381 H   0  0  0  0  0  0  0  0  0  0  0  0
   -4.4261    1.8448   -0.3382 H   0  0  0  0  0  0  0  0  0  0  0  0
  1  2  1  0
  2  3  1  0
  3  4  2  0
  3  5  1  0
  5  6  1  0
  6  7  1  0
  7  8  1  0
  8  9  1  0
  9 10  1  0
  9 11  2  0
  9 12  2  0
  1 13  1  0
  1 14  1  0
  1 15  1  0
  2 16  1  0
  5 17  1  0
  6 18  1  0
  6 19  1  0
  7 20  1  0
  7 21  1  0
  8 22  1  0
 10 23  1  0
 10 24  1  0
M  END
$$$$

     RDKit          3D

 24 23  0  0  0  0  0  0  0  0999 V2000
    3.4062   -0.0563    1.6974 C   0  0  0  0  0  0  0  0  0  0  0  0
    2.7363   -0.5743    0.5202 N   0  0  0  0  0  0  0  0  0  0  0  0
    1.7450    0.1733   -0.1842 C   0  0  0  0  0  0  0  0  0  0  0  0
    1.4661    1.3132    0.2548 O   0  0  0  0  0  0  0  0  0  0  0  0
    1.1189   -0.3815   -1.3328 N   0  0  0  0  0  0  0  0  0  0  0  0
    0.1150    0.3629   -2.0547 C   0  0  0  0  0  0  0  0  0  0  0  0
   -1.0683    0.6969   -1.1664 C   0  0  0  0  0  0  0  0  0  0  0  0
   -1.6844   -0.5297   -0.6635 N   0  0  0  0  0  0  0  0  0  0  0  0
   -3.0197   -0.0757    0.3366 S   0  0  0  0  0  6  0  0  0  0  0  0
   -2.4145    0.0962    1.9468 N   0  0  0  0  0  0  0  0  0  0  0  0
   -4.0797   -1.1420    0.3681 O   0  0  0  0  0  0  0  0  0  0  0  0
   -3.6316    1.2040   -0.1437 O   0  0  0  0  0  0  0  0  0  0  0  0
    4.3672    0.4221    1.4819 H   0  0  0  0  0  0  0  0  0  0  0  0
    3.6053   -0.9121    2.3756 H   0  0  0  0  0  0  0  0  0  0  0  0
    2.7343    0.6282    2.2822 H   0  0  0  0  0  0  0  0  0  0  0  0
    2.9549   -1.5214    0.1393 H   0  0  0  0  0  0  0  0  0  0  0  0
    1.3855   -1.3383   -1.6615 H   0  0  0  0  0  0  0  0  0  0  0  0
    0.5138    1.3187   -2.4483 H   0  0  0  0  0  0  0  0  0  0  0  0
   -0.2654   -0.2061   -2.9137 H   0  0  0  0  0  0  0  0  0  0  0  0
   -0.7992    1.3414   -0.3194 H   0  0  0  0  0  0  0  0  0  0  0  0
   -1.8395    1.1986   -1.7749 H   0  0  0  0  0  0  0  0  0  0  0  0
   -2.0763   -1.0869   -1.4491 H   0  0  0  0  0  0  0  0  0  0  0  0
   -3.1448   -0.1269    2.6451 H   0  0  0  0  0  0  0  0  0  0  0  0
   -2.1253    1.0926    2.0641 H   0  0  0  0  0  0  0  0  0  0  0  0
  1  2  1  0
  2  3  1  0
  3  4  2  0
  3  5  1  0
  5  6  1  0
  6  7  1  0
  7  8  1  0
  8  9  1  0
  9 10  1  0
  9 11  2  0
  9 12  2  0
  1 13  1  0
  1 14  1  0
  1 15  1  0
  2 16  1  0
  5 17  1  0
  6 18  1  0
  6 19  1  0
  7 20  1  0
  7 21  1  0
  8 22  1  0
 10 23  1  0
 10 24  1  0
M  END
$$$$

     RDKit          3D

 24 23  0  0  0  0  0  0  0  0999 V2000
    4.2961    0.8603    0.4006 C   0  0  0  0  0  0  0  0  0  0  0  0
    3.4148   -0.2675    0.4924 N   0  0  0  0  0  0  0  0  0  0  0  0
    2.0895   -0.2364   -0.0579 C   0  0  0  0  0  0  0  0  0  0  0  0
    1.6550    0.7779   -0.6384 O   0  0  0  0  0  0  0  0  0  0  0  0
    1.2337   -1.3678    0.0457 N   0  0  0  0  0  0  0  0  0  0  0  0
   -0.0952   -1.4208   -0.4721 C   0  0  0  0  0  0  0  0  0  0  0  0
   -1.0222   -0.3774    0.1203 C   0  0  0  0  0  0  0  0  0  0  0  0
   -2.3160   -0.5623   -0.5010 N   0  0  0  0  0  0  0  0  0  0  0  0
   -3.4949    0.5460    0.0595 S   0  0  0  0  0  6  0  0  0  0  0  0
   -3.5457    1.9916   -0.8728 N   0  0  0  0  0  0  0  0  0  0  0  0
   -3.2470    0.9154    1.5022 O   0  0  0  0  0  0  0  0  0  0  0  0
   -4.8752   -0.0612    0.0111 O   0  0  0  0  0  0  0  0  0  0  0  0
    4.0194    1.5928    1.1863 H   0  0  0  0  0  0  0  0  0  0  0  0
    4.1615    1.3378   -0.5973 H   0  0  0  0  0  0  0  0  0  0  0  0
    5.3459    0.5660    0.5328 H   0  0  0  0  0  0  0  0  0  0  0  0
    3.7601   -1.1193    0.9720 H   0  0  0  0  0  0  0  0  0  0  0  0
    1.6280   -2.1985    0.5366 H   0  0  0  0  0  0  0  0  0  0  0  0
   -0.5246   -2.4211   -0.3031 H   0  0  0  0  0  0  0  0  0  0  0  0
   -0.0578   -1.2755   -1.5689 H   0  0  0  0  0  0  0  0  0  0  0  0
   -0.6235    0.6097   -0.1576 H   0  0  0  0  0  0  0  0  0  0  0  0
   -1.1497   -0.4882    1.1984 H   0  0  0  0  0  0  0  0  0  0  0  0
   -2.6349   -1.5544   -0.4601 H   0  0  0  0  0  0  0  0  0  0  0  0
   -3.5418    1.7127   -1.8818 H   0  0  0  0  0  0  0  0  0  0  0  0
   -4.4752    2.4403   -0.6941 H   0  0  0  0  0  0  0  0  0  0  0  0
  1  2  1  0
  2  3  1  0
  3  4  2  0
  3  5  1  0
  5  6  1  0
  6  7  1  0
  7  8  1  0
  8  9  1  0
  9 10  1  0
  9 11  2  0
  9 12  2  0
  1 13  1  0
  1 14  1  0
  1 15  1  0
  2 16  1  0
  5 17  1  0
  6 18  1  0
  6 19  1  0
  7 20  1  0
  7 21  1  0
  8 22  1  0
 10 23  1  0
 10 24  1  0
M  END
$$$$
