
     RDKit          3D

 29 28  0  0  0  0  0  0  0  0999 V2000
   -0.1196   -1.2561   -0.4323 C   0  0  0  0  0  0  0  0  0  0  0  0
   -0.2670    0.0282    0.1517 N   0  0  0  0  0  0  0  0  0  0  0  0
    0.7286    0.3889    1.0861 C   0  0  0  0  0  0  0  0  0  0  0  0
    2.0821    0.7633    0.6766 C   0  0  0  0  0  0  0  0  0  0  0  0
    3.0352   -0.4159   -0.2454 S   0  0  0  0  0  4  0  0  0  0  0  0
    4.7026    0.2815   -0.5788 C   0  0  0  0  0  0  0  0  0  0  0  0
    2.4515   -0.6807   -1.6513 O   0  0  0  0  0  0  0  0  0  0  0  0
   -1.5516    0.3417    0.6743 C   0  0  0  0  0  0  0  0  0  0  0  0
   -2.6522    0.5120   -0.3099 C   0  0  1  0  0  0  0  0  0  0  0  0
   -2.4044    1.5294   -1.2281 O   0  0  0  0  0  0  0  0  0  0  0  0
   -3.1167   -0.7302   -0.9959 C   0  0  0  0  0  0  0  0  0  0  0  0
   -4.3111   -0.3911   -1.6694 O   0  0  0  0  0  0  0  0  0  0  0  0
    0.7431   -1.8453   -0.0298 H   0  0  0  0  0  0  0  0  0  0  0  0
   -0.0872   -1.2892   -1.5352 H   0  0  0  0  0  0  0  0  0  0  0  0
   -1.0048   -1.9033   -0.0870 H   0  0  0  0  0  0  0  0  0  0  0  0
    0.3152    1.1789    1.8155 H   0  0  0  0  0  0  0  0  0  0  0  0
    0.8269   -0.4960    1.8133 H   0  0  0  0  0  0  0  0  0  0  0  0
    2.6864    1.0280    1.6066 H   0  0  0  0  0  0  0  0  0  0  0  0
    2.0684    1.7513    0.1064 H   0  0  0  0  0  0  0  0  0  0  0  0
    4.9525    0.9032    0.2895 H   0  0  0  0  0  0  0  0  0  0  0  0
    5.4304   -0.5489   -0.6537 H   0  0  0  0  0  0  0  0  0  0  0  0
    4.6173    0.8703   -1.5068 H   0  0  0  0  0  0  0  0  0  0  0  0
   -1.4539    1.3291    1.2080 H   0  0  0  0  0  0  0  0  0  0  0  0
   -1.8528   -0.4247    1.4165 H   0  0  0  0  0  0  0  0  0  0  0  0
   -3.5423    0.8806    0.2883 H   0  0  0  0  0  0  0  0  0  0  0  0
   -1.5213    1.9237   -1.0244 H   0  0  0  0  0  0  0  0  0  0  0  0
   -3.3638   -1.5228   -0.2902 H   0  0  0  0  0  0  0  0  0  0  0  0
   -2.4336   -1.0646   -1.8125 H   0  0  0  0  0  0  0  0  0  0  0  0
   -4.9579   -1.1412   -1.6691 H   0  0  0  0  0  0  0  0  0  0  0  0
  1  2  1  0
  2  3  1  0
  3  4  1  0
  5  4  1  6
  5  6  1  0
  5  7  2  0
  2  8  1  0
  8  9  1  0
  9 10  1  0
  9 11  1  0
 11 12  1  0
  1 13  1  0
  1 14  1  0
  1 15  1  0
  3 16  1  0
  3 17  1  0
  4 18  1  0
  4 19  1  0
  6 20  1  0
  6 21  1  0
  6 22  1  0
  8 23  1  0
  8 24  1  0
  9 25  1  1
 10 26  1  0
 11 27  1  0
 11 28  1  0
 12 29  1  0
M  END
$$$$

     RDKit          3D

 29 28  0  0  0  0  0  0  0  0999 V2000
   -0.6341   -1.8351   -0.0279 C   0  0  0  0  0  0  0  0  0  0  0  0
   -0.4760   -0.4613   -0.3893 N   0  0  0  0  0  0  0  0  0  0  0  0
    0.7915   -0.1231   -0.9431 C   0  0  0  0  0  0  0  0  0  0  0  0
    1.8874   -0.2253    0.0924 C   0  0  0  0  0  0  0  0  0  0  0  0
    3.4586    0.2137   -0.6831 S   0  0  0  0  0  4  0  0  0  0  0  0
    4.8133    0.1172    0.4897 C   0  0  0  0  0  0  0  0  0  0  0  0
    3.3715    1.5618   -1.3696 O   0  0  0  0  0  0  0  0  0  0  0  0
   -1.6015    0.1488   -0.9984 C   0  0  0  0  0  0  0  0  0  0  0  0
   -2.7647    0.3176   -0.0675 C   0  0  1  0  0  0  0  0  0  0  0  0
   -3.1744   -0.9309    0.4001 O   0  0  0  0  0  0  0  0  0  0  0  0
   -2.4738    1.2681    1.0757 C   0  0  0  0  0  0  0  0  0  0  0  0
   -3.6258    1.4370    1.8369 O   0  0  0  0  0  0  0  0  0  0  0  0
   -0.8946   -1.8766    1.0558 H   0  0  0  0  0  0  0  0  0  0  0  0
    0.3414   -2.3823   -0.1499 H   0  0  0  0  0  0  0  0  0  0  0  0
   -1.4205   -2.3626   -0.5656 H   0  0  0  0  0  0  0  0  0  0  0  0
    0.7302    0.9548   -1.2611 H   0  0  0  0  0  0  0  0  0  0  0  0
    1.0680   -0.6955   -1.8277 H   0  0  0  0  0  0  0  0  0  0  0  0
    1.9834   -1.2743    0.4554 H   0  0  0  0  0  0  0  0  0  0  0  0
    1.7227    0.4567    0.9241 H   0  0  0  0  0  0  0  0  0  0  0  0
    4.4577    0.3260    1.5043 H   0  0  0  0  0  0  0  0  0  0  0  0
    5.2102   -0.9363    0.4757 H   0  0  0  0  0  0  0  0  0  0  0  0
    5.6313    0.8294    0.1791 H   0  0  0  0  0  0  0  0  0  0  0  0
   -1.9742   -0.3494   -1.9118 H   0  0  0  0  0  0  0  0  0  0  0  0
   -1.2704    1.1753   -1.3309 H   0  0  0  0  0  0  0  0  0  0  0  0
   -3.6106    0.7242   -0.6803 H   0  0  0  0  0  0  0  0  0  0  0  0
   -3.6874   -1.3485   -0.3452 H   0  0  0  0  0  0  0  0  0  0  0  0
   -1.7067    0.7836    1.7459 H   0  0  0  0  0  0  0  0  0  0  0  0
   -2.0606    2.2192    0.7512 H   0  0  0  0  0  0  0  0  0  0  0  0
   -4.0918    2.2680    1.5654 H   0  0  0  0  0  0  0  0  0  0  0  0
  1  2  1  0
  2  3  1  0
  3  4  1  0
  5  4  1  1
  5  6  1  0
  5  7  2  0
  2  8  1  0
  8  9  1  0
  9 10  1  0
  9 11  1  0
 11 12  1  0
  1 13  1  0
  1 14  1  0
  1 15  1  0
  3 16  1  0
  3 17  1  0
  4 18  1  0
  4 19  1  0
  6 20  1  0
  6 21  1  0
  6 22  1  0
  8 23  1  0
  8 24  1  0
  9 25  1  6
 10 26  1  0
 11 27  1  0
 11 28  1  0
 12 29  1  0
M  END
$$$$

     RDKit          3D

 29 28  0  0  0  0  0  0  0  0999 V2000
   -0.0313   -1.1433   -2.6293 C   0  0  0  0  0  0  0  0  0  0  0  0
    0.2737   -0.1322   -1.6254 N   0  0  0  0  0  0  0  0  0  0  0  0
   -0.9470    0.3628   -1.0262 C   0  0  0  0  0  0  0  0  0  0  0  0
   -1.6612   -0.6446   -0.1978 C   0  0  0  0  0  0  0  0  0  0  0  0
   -3.1543    0.1066    0.4498 S   0  0  0  0  0  4  0  0  0  0  0  0
   -2.7481    1.5089    1.4451 C   0  0  0  0  0  0  0  0  0  0  0  0
   -4.0426   -0.9035    1.1481 O   0  0  0  0  0  0  0  0  0  0  0  0
    1.2432   -0.6085   -0.6743 C   0  0  0  0  0  0  0  0  0  0  0  0
    1.7364    0.4189    0.2989 C   0  0  1  0  0  0  0  0  0  0  0  0
    0.8020    1.0096    1.0973 O   0  0  0  0  0  0  0  0  0  0  0  0
    2.8026   -0.2830    1.1513 C   0  0  0  0  0  0  0  0  0  0  0  0
    3.4572    0.6234    1.9882 O   0  0  0  0  0  0  0  0  0  0  0  0
    0.4184   -0.7863   -3.5898 H   0  0  0  0  0  0  0  0  0  0  0  0
    0.4307   -2.0765   -2.3133 H   0  0  0  0  0  0  0  0  0  0  0  0
   -1.1316   -1.2312   -2.6910 H   0  0  0  0  0  0  0  0  0  0  0  0
   -1.6267    0.5893   -1.9061 H   0  0  0  0  0  0  0  0  0  0  0  0
   -0.8457    1.2955   -0.4990 H   0  0  0  0  0  0  0  0  0  0  0  0
   -1.0411   -0.9339    0.7000 H   0  0  0  0  0  0  0  0  0  0  0  0
   -1.8909   -1.5878   -0.7497 H   0  0  0  0  0  0  0  0  0  0  0  0
   -2.6910    1.1812    2.5046 H   0  0  0  0  0  0  0  0  0  0  0  0
   -1.7615    1.9185    1.1779 H   0  0  0  0  0  0  0  0  0  0  0  0
   -3.5038    2.3322    1.3141 H   0  0  0  0  0  0  0  0  0  0  0  0
    0.8872   -1.5092   -0.1171 H   0  0  0  0  0  0  0  0  0  0  0  0
    2.1265   -0.9422   -1.2642 H   0  0  0  0  0  0  0  0  0  0  0  0
    2.2634    1.2416   -0.2493 H   0  0  0  0  0  0  0  0  0  0  0  0
    0.9664    1.9434    1.3145 H   0  0  0  0  0  0  0  0  0  0  0  0
    2.2686   -1.0403    1.7674 H   0  0  0  0  0  0  0  0  0  0  0  0
    3.4957   -0.7931    0.4756 H   0  0  0  0  0  0  0  0  0  0  0  0
    3.9050    0.0834    2.6997 H   0  0  0  0  0  0  0  0  0  0  0  0
  1  2  1  0
  2  3  1  0
  3  4  1  0
  5  4  1  1
  5  6  1  0
  5  7  2  0
  2  8  1  0
  8  9  1  0
  9 10  1  0
  9 11  1  0
 11 12  1  0
  1 13  1  0
  1 14  1  0
  1 15  1  0
  3 16  1  0
  3 17  1  0
  4 18  1  0
  4 19  1  0
  6 20  1  0
  6 21  1  0
  6 22  1  0
  8 23  1  0
  8 24  1  0
  9 25  1  6
 10 26  1  0
 11 27  1  0
 11 28  1  0
 12 29  1  0
M  END
$$$$

     RDKit          3D

 29 28  0  0  0  0  0  0  0  0999 V2000
    0.8218   -0.7904    1.4901 C   0  0  0  0  0  0  0  0  0  0  0  0
    0.0895   -0.3117    0.4024 N   0  0  0  0  0  0  0  0  0  0  0  0
    0.6001    0.5220   -0.5620 C   0  0  0  0  0  0  0  0  0  0  0  0
    1.6172   -0.0704   -1.5367 C   0  0  0  0  0  0  0  0  0  0  0  0
    3.0428   -0.6913   -0.7845 S   0  0  0  0  0  4  0  0  0  0  0  0
    4.0010    0.4180    0.1350 C   0  0  0  0  0  0  0  0  0  0  0  0
    3.2393   -2.1355   -0.6989 O   0  0  0  0  0  0  0  0  0  0  0  0
   -1.2934   -0.2270    0.6714 C   0  0  0  0  0  0  0  0  0  0  0  0
   -2.1878    0.2610   -0.4165 C   0  0  1  0  0  0  0  0  0  0  0  0
   -2.0716   -0.5471   -1.5435 O   0  0  0  0  0  0  0  0  0  0  0  0
   -3.6291    0.0552    0.1198 C   0  0  0  0  0  0  0  0  0  0  0  0
   -3.8314    0.8258    1.2485 O   0  0  0  0  0  0  0  0  0  0  0  0
    1.8629   -1.0579    1.3779 H   0  0  0  0  0  0  0  0  0  0  0  0
    0.7629   -0.0664    2.3632 H   0  0  0  0  0  0  0  0  0  0  0  0
    0.3102   -1.7293    1.8573 H   0  0  0  0  0  0  0  0  0  0  0  0
   -0.2257    0.9028   -1.2400 H   0  0  0  0  0  0  0  0  0  0  0  0
    1.0717    1.4727   -0.1814 H   0  0  0  0  0  0  0  0  0  0  0  0
    1.0965   -0.8526   -2.1610 H   0  0  0  0  0  0  0  0  0  0  0  0
    1.8248    0.7523   -2.2895 H   0  0  0  0  0  0  0  0  0  0  0  0
    3.4046    1.3101    0.4237 H   0  0  0  0  0  0  0  0  0  0  0  0
    4.3884    0.0207    1.1079 H   0  0  0  0  0  0  0  0  0  0  0  0
    4.8997    0.7943   -0.4247 H   0  0  0  0  0  0  0  0  0  0  0  0
   -1.6686   -1.2380    1.0432 H   0  0  0  0  0  0  0  0  0  0  0  0
   -1.4619    0.4767    1.5428 H   0  0  0  0  0  0  0  0  0  0  0  0
   -2.0510    1.3015   -0.6810 H   0  0  0  0  0  0  0  0  0  0  0  0
   -2.8741   -0.4090   -2.1110 H   0  0  0  0  0  0  0  0  0  0  0  0
   -3.6613   -1.0290    0.3522 H   0  0  0  0  0  0  0  0  0  0  0  0
   -4.3194    0.2665   -0.6895 H   0  0  0  0  0  0  0  0  0  0  0  0
   -3.7581    1.7759    1.0042 H   0  0  0  0  0  0  0  0  0  0  0  0
  1  2  1  0
  2  3  1  0
  3  4  1  0
  5  4  1  6
  5  6  1  0
  5  7  2  0
  2  8  1  0
  8  9  1  0
  9 10  1  0
  9 11  1  0
 11 12  1  0
  1 13  1  0
  1 14  1  0
  1 15  1  0
  3 16  1  0
  3 17  1  0
  4 18  1  0
  4 19  1  0
  6 20  1  0
  6 21  1  0
  6 22  1  0
  8 23  1  0
  8 24  1  0
  9 25  1  6
 10 26  1  0
 11 27  1  0
 11 28  1  0
 12 29  1  0
M  END
$$$$

     RDKit          3D

 29 28  0  0  0  0  0  0  0  0999 V2000
   -0.3787   -2.2149    1.1248 C   0  0  0  0  0  0  0  0  0  0  0  0
    0.0309   -0.9755    0.4695 N   0  0  0  0  0  0  0  0  0  0  0  0
    1.2495   -1.3044   -0.2297 C   0  0  0  0  0  0  0  0  0  0  0  0
    1.9642   -0.1952   -0.8934 C   0  0  0  0  0  0  0  0  0  0  0  0
    2.4732    1.0494    0.3129 S   0  0  0  0  0  4  0  0  0  0  0  0
    3.3504    2.3754   -0.5093 C   0  0  0  0  0  0  0  0  0  0  0  0
    3.3988    0.4146    1.3407 O   0  0  0  0  0  0  0  0  0  0  0  0
   -1.0158   -0.4942   -0.4067 C   0  0  0  0  0  0  0  0  0  0  0  0
   -2.1758   -0.0350    0.4381 C   0  0  1  0  0  0  0  0  0  0  0  0
   -1.7179    0.9917    1.2514 O   0  0  0  0  0  0  0  0  0  0  0  0
   -3.2487    0.5517   -0.4744 C   0  0  0  0  0  0  0  0  0  0  0  0
   -4.3016    1.0622    0.2941 O   0  0  0  0  0  0  0  0  0  0  0  0
    0.2600   -2.2807    2.0425 H   0  0  0  0  0  0  0  0  0  0  0  0
   -1.4104   -2.2732    1.4283 H   0  0  0  0  0  0  0  0  0  0  0  0
   -0.1162   -3.0932    0.4957 H   0  0  0  0  0  0  0  0  0  0  0  0
    1.9384   -1.7210    0.5488 H   0  0  0  0  0  0  0  0  0  0  0  0
    1.1019   -2.1564   -0.9411 H   0  0  0  0  0  0  0  0  0  0  0  0
    1.4851    0.2431   -1.7667 H   0  0  0  0  0  0  0  0  0  0  0  0
    2.9338   -0.6257   -1.2808 H   0  0  0  0  0  0  0  0  0  0  0  0
    4.2478    1.9201   -1.0040 H   0  0  0  0  0  0  0  0  0  0  0  0
    2.7057    2.8070   -1.2745 H   0  0  0  0  0  0  0  0  0  0  0  0
    3.6868    3.1206    0.2414 H   0  0  0  0  0  0  0  0  0  0  0  0
   -1.3866   -1.2774   -1.1061 H   0  0  0  0  0  0  0  0  0  0  0  0
   -0.6631    0.3650   -0.9753 H   0  0  0  0  0  0  0  0  0  0  0  0
   -2.6704   -0.8334    0.9986 H   0  0  0  0  0  0  0  0  0  0  0  0
   -1.0061    1.4636    0.7805 H   0  0  0  0  0  0  0  0  0  0  0  0
   -3.6475   -0.2577   -1.1292 H   0  0  0  0  0  0  0  0  0  0  0  0
   -2.8305    1.3524   -1.1093 H   0  0  0  0  0  0  0  0  0  0  0  0
   -4.2573    2.0211    0.4280 H   0  0  0  0  0  0  0  0  0  0  0  0
  1  2  1  0
  2  3  1  0
  3  4  1  0
  5  4  1  6
  5  6  1  0
  5  7  2  0
  2  8  1  0
  8  9  1  0
  9 10  1  0
  9 11  1  0
 11 12  1  0
  1 13  1  0
  1 14  1  0
  1 15  1  0
  3 16  1  0
  3 17  1  0
  4 18  1  0
  4 19  1  0
  6 20  1  0
  6 21  1  0
  6 22  1  0
  8 23  1  0
  8 24  1  0
  9 25  1  1
 10 26  1  0
 11 27  1  0
 11 28  1  0
 12 29  1  0
M  END
$$$$

     RDKit          3D

 29 28  0  0  0  0  0  0  0  0999 V2000
   -0.5089   -2.2075   -1.1546 C   0  0  0  0  0  0  0  0  0  0  0  0
   -0.0205   -1.4413   -0.0820 N   0  0  0  0  0  0  0  0  0  0  0  0
    1.1755   -0.7387   -0.2623 C   0  0  0  0  0  0  0  0  0  0  0  0
    1.6700    0.0652    0.8953 C   0  0  0  0  0  0  0  0  0  0  0  0
    3.2109    0.9174    0.5304 S   0  0  0  0  0  4  0  0  0  0  0  0
    3.0829    2.0482   -0.8230 C   0  0  0  0  0  0  0  0  0  0  0  0
    4.3728   -0.0493    0.3991 O   0  0  0  0  0  0  0  0  0  0  0  0
   -1.0206   -0.9389    0.7641 C   0  0  0  0  0  0  0  0  0  0  0  0
   -1.8172    0.1113   -0.0223 C   0  0  1  0  0  0  0  0  0  0  0  0
   -2.4017   -0.4253   -1.1388 O   0  0  0  0  0  0  0  0  0  0  0  0
   -2.8912    0.7027    0.8619 C   0  0  0  0  0  0  0  0  0  0  0  0
   -2.3849    1.2699    2.0186 O   0  0  0  0  0  0  0  0  0  0  0  0
   -0.5180   -1.6254   -2.1142 H   0  0  0  0  0  0  0  0  0  0  0  0
   -1.5061   -2.6306   -0.9593 H   0  0  0  0  0  0  0  0  0  0  0  0
    0.1862   -3.0719   -1.3577 H   0  0  0  0  0  0  0  0  0  0  0  0
    1.0881   -0.0682   -1.1434 H   0  0  0  0  0  0  0  0  0  0  0  0
    1.9807   -1.4649   -0.5260 H   0  0  0  0  0  0  0  0  0  0  0  0
    0.9636    0.8236    1.2608 H   0  0  0  0  0  0  0  0  0  0  0  0
    1.8858   -0.5949    1.7750 H   0  0  0  0  0  0  0  0  0  0  0  0
    3.2357    3.0885   -0.4138 H   0  0  0  0  0  0  0  0  0  0  0  0
    2.1154    2.0592   -1.3381 H   0  0  0  0  0  0  0  0  0  0  0  0
    3.9380    1.8806   -1.5108 H   0  0  0  0  0  0  0  0  0  0  0  0
   -0.7029   -0.4465    1.6745 H   0  0  0  0  0  0  0  0  0  0  0  0
   -1.7427   -1.7459    1.0087 H   0  0  0  0  0  0  0  0  0  0  0  0
   -1.1128    0.9500   -0.2552 H   0  0  0  0  0  0  0  0  0  0  0  0
   -3.3238   -0.1183   -1.2005 H   0  0  0  0  0  0  0  0  0  0  0  0
   -3.3474    1.5482    0.2794 H   0  0  0  0  0  0  0  0  0  0  0  0
   -3.7121    0.0049    1.0873 H   0  0  0  0  0  0  0  0  0  0  0  0
   -1.8950    2.0977    1.7469 H   0  0  0  0  0  0  0  0  0  0  0  0
  1  2  1  0
  2  3  1  0
  3  4  1  0
  5  4  1  6
  5  6  1  0
  5  7  2  0
  2  8  1  0
  8  9  1  0
  9 10  1  0
  9 11  1  0
 11 12  1  0
  1 13  1  0
  1 14  1  0
  1 15  1  0
  3 16  1  0
  3 17  1  0
  4 18  1  0
  4 19  1  0
  6 20  1  0
  6 21  1  0
  6 22  1  0
  8 23  1  0
  8 24  1  0
  9 25  1  6
 10 26  1  0
 11 27  1  0
 11 28  1  0
 12 29  1  0
M  END
$$$$

     RDKit          3D

 29 28  0  0  0  0  0  0  0  0999 V2000
   -0.5248   -2.0878    1.1768 C   0  0  0  0  0  0  0  0  0  0  0  0
   -0.0925   -0.8774    0.4596 N   0  0  0  0  0  0  0  0  0  0  0  0
    0.9431   -1.3503   -0.4684 C   0  0  0  0  0  0  0  0  0  0  0  0
    1.7031   -0.2187   -1.1179 C   0  0  0  0  0  0  0  0  0  0  0  0
    2.5268    0.6697    0.2532 S   0  0  0  0  0  4  0  0  0  0  0  0
    3.4577    2.0471   -0.4744 C   0  0  0  0  0  0  0  0  0  0  0  0
    3.5051   -0.2424    0.9442 O   0  0  0  0  0  0  0  0  0  0  0  0
   -1.2061   -0.4820   -0.4116 C   0  0  0  0  0  0  0  0  0  0  0  0
   -2.3838    0.0265    0.3409 C   0  0  1  0  0  0  0  0  0  0  0  0
   -2.9036   -0.8251    1.2785 O   0  0  0  0  0  0  0  0  0  0  0  0
   -2.2612    1.4223    0.8823 C   0  0  0  0  0  0  0  0  0  0  0  0
   -1.7563    2.3072   -0.0752 O   0  0  0  0  0  0  0  0  0  0  0  0
   -0.7911   -1.7521    2.1939 H   0  0  0  0  0  0  0  0  0  0  0  0
    0.2868   -2.8367    1.2611 H   0  0  0  0  0  0  0  0  0  0  0  0
   -1.3456   -2.5874    0.6225 H   0  0  0  0  0  0  0  0  0  0  0  0
    1.6958   -1.9898    0.0365 H   0  0  0  0  0  0  0  0  0  0  0  0
    0.4998   -1.9896   -1.2688 H   0  0  0  0  0  0  0  0  0  0  0  0
    1.0193    0.4674   -1.6294 H   0  0  0  0  0  0  0  0  0  0  0  0
    2.4809   -0.6579   -1.7866 H   0  0  0  0  0  0  0  0  0  0  0  0
    4.3672    2.2180    0.1403 H   0  0  0  0  0  0  0  0  0  0  0  0
    2.7735    2.9023   -0.5423 H   0  0  0  0  0  0  0  0  0  0  0  0
    3.7445    1.7042   -1.5048 H   0  0  0  0  0  0  0  0  0  0  0  0
   -1.5121   -1.3441   -1.0335 H   0  0  0  0  0  0  0  0  0  0  0  0
   -0.8480    0.3189   -1.0647 H   0  0  0  0  0  0  0  0  0  0  0  0
   -3.2098    0.1097   -0.4597 H   0  0  0  0  0  0  0  0  0  0  0  0
   -3.5373   -1.4523    0.8511 H   0  0  0  0  0  0  0  0  0  0  0  0
   -3.2310    1.8346    1.2145 H   0  0  0  0  0  0  0  0  0  0  0  0
   -1.5820    1.4421    1.7699 H   0  0  0  0  0  0  0  0  0  0  0  0
   -1.8185    3.2237    0.3467 H   0  0  0  0  0  0  0  0  0  0  0  0
  1  2  1  0
  2  3  1  0
  3  4  1  0
  5  4  1  6
  5  6  1  0
  5  7  2  0
  2  8  1  0
  8  9  1  0
  9 10  1  0
  9 11  1  0
 11 12  1  0
  1 13  1  0
  1 14  1  0
  1 15  1  0
  3 16  1  0
  3 17  1  0
  4 18  1  0
  4 19  1  0
  6 20  1  0
  6 21  1  0
  6 22  1  0
  8 23  1  0
  8 24  1  0
  9 25  1  6
 10 26  1  0
 11 27  1  0
 11 28  1  0
 12 29  1  0
M  END
$$$$

     RDKit          3D

 29 28  0  0  0  0  0  0  0  0999 V2000
   -0.2494   -1.4435    1.2028 C   0  0  0  0  0  0  0  0  0  0  0  0
   -0.2613   -0.9752   -0.1015 N   0  0  0  0  0  0  0  0  0  0  0  0
    0.9097   -0.2294   -0.5025 C   0  0  0  0  0  0  0  0  0  0  0  0
    2.1630   -1.0302   -0.6264 C   0  0  0  0  0  0  0  0  0  0  0  0
    3.5413    0.0491   -1.1527 S   0  0  0  0  0  4  0  0  0  0  0  0
    3.7455    1.3356    0.0961 C   0  0  0  0  0  0  0  0  0  0  0  0
    3.1992    0.6565   -2.5060 O   0  0  0  0  0  0  0  0  0  0  0  0
   -1.4100   -0.6417   -0.8103 C   0  0  0  0  0  0  0  0  0  0  0  0
   -2.0503    0.6249   -0.3634 C   0  0  1  0  0  0  0  0  0  0  0  0
   -3.1472    0.8568   -1.2376 O   0  0  0  0  0  0  0  0  0  0  0  0
   -2.5628    0.6186    1.0436 C   0  0  0  0  0  0  0  0  0  0  0  0
   -3.5215   -0.3933    1.1717 O   0  0  0  0  0  0  0  0  0  0  0  0
    0.3409   -2.4030    1.3002 H   0  0  0  0  0  0  0  0  0  0  0  0
    0.1686   -0.6719    1.8938 H   0  0  0  0  0  0  0  0  0  0  0  0
   -1.2496   -1.7112    1.5654 H   0  0  0  0  0  0  0  0  0  0  0  0
    1.0997    0.5254    0.3255 H   0  0  0  0  0  0  0  0  0  0  0  0
    0.6736    0.3652   -1.4008 H   0  0  0  0  0  0  0  0  0  0  0  0
    2.4824   -1.4467    0.3483 H   0  0  0  0  0  0  0  0  0  0  0  0
    2.0132   -1.7824   -1.4079 H   0  0  0  0  0  0  0  0  0  0  0  0
    3.7888    2.3212   -0.4024 H   0  0  0  0  0  0  0  0  0  0  0  0
    2.9022    1.3164    0.8317 H   0  0  0  0  0  0  0  0  0  0  0  0
    4.6797    1.1783    0.6356 H   0  0  0  0  0  0  0  0  0  0  0  0
   -1.1965   -0.5913   -1.9343 H   0  0  0  0  0  0  0  0  0  0  0  0
   -2.1568   -1.4887   -0.7232 H   0  0  0  0  0  0  0  0  0  0  0  0
   -1.3765    1.5170   -0.4896 H   0  0  0  0  0  0  0  0  0  0  0  0
   -3.5000    1.7676   -0.9754 H   0  0  0  0  0  0  0  0  0  0  0  0
   -1.8279    0.5518    1.8337 H   0  0  0  0  0  0  0  0  0  0  0  0
   -3.1709    1.5776    1.2088 H   0  0  0  0  0  0  0  0  0  0  0  0
   -4.0270   -0.4534    0.2953 H   0  0  0  0  0  0  0  0  0  0  0  0
  1  2  1  0
  2  3  1  0
  3  4  1  0
  5  4  1  1
  5  6  1  0
  5  7  2  0
  2  8  1  0
  8  9  1  0
  9 10  1  0
  9 11  1  0
 11 12  1  0
  1 13  1  0
  1 14  1  0
  1 15  1  0
  3 16  1  0
  3 17  1  0
  4 18  1  0
  4 19  1  0
  6 20  1  0
  6 21  1  0
  6 22  1  0
  8 23  1  0
  8 24  1  0
  9 25  1  1
 10 26  1  0
 11 27  1  0
 11 28  1  0
 12 29  1  0
M  END
$$$$
