
     RDKit          3D

 26 27  0  0  0  0  0  0  0  0999 V2000
    3.3589    0.0461    0.1509 N   0  0  0  0  0  0  0  0  0  0  0  0
    2.0941   -0.1133    0.6945 N   0  0  0  0  0  0  0  0  0  0  0  0
    1.5611   -1.3695    0.2182 C   0  0  0  0  0  0  0  0  0  0  0  0
    0.2781   -1.6603    0.9874 C   0  0  0  0  0  0  0  0  0  0  0  0
   -0.5856   -0.5426    0.8341 N   0  0  0  0  0  0  0  0  0  0  0  0
   -1.8628   -0.8545    0.2269 C   0  0  0  0  0  0  0  0  0  0  0  0
   -2.4030    0.5205   -0.1495 C   0  0  1  0  0  0  0  0  0  0  0  0
   -3.4342    0.8534    0.6994 O   0  0  0  0  0  0  0  0  0  0  0  0
   -1.2124    1.4713   -0.0171 C   0  0  0  0  0  0  0  0  0  0  0  0
   -0.0723    0.4500   -0.1233 C   0  0  1  0  0  0  0  0  0  0  0  0
    1.2370    1.0071    0.3039 C   0  0  0  0  0  0  0  0  0  0  0  0
    3.9387    0.7520    0.6669 H   0  0  0  0  0  0  0  0  0  0  0  0
    3.3606    0.3081   -0.8510 H   0  0  0  0  0  0  0  0  0  0  0  0
    2.2660   -2.1645    0.4636 H   0  0  0  0  0  0  0  0  0  0  0  0
    1.3345   -1.3598   -0.8653 H   0  0  0  0  0  0  0  0  0  0  0  0
    0.5931   -1.7097    2.0695 H   0  0  0  0  0  0  0  0  0  0  0  0
   -0.1916   -2.6014    0.6968 H   0  0  0  0  0  0  0  0  0  0  0  0
   -1.6459   -1.4662   -0.6903 H   0  0  0  0  0  0  0  0  0  0  0  0
   -2.5373   -1.3896    0.8990 H   0  0  0  0  0  0  0  0  0  0  0  0
   -2.7314    0.5719   -1.1976 H   0  0  0  0  0  0  0  0  0  0  0  0
   -3.5856    1.8144    0.8091 H   0  0  0  0  0  0  0  0  0  0  0  0
   -1.1752    2.2154   -0.8096 H   0  0  0  0  0  0  0  0  0  0  0  0
   -1.2517    1.9003    1.0124 H   0  0  0  0  0  0  0  0  0  0  0  0
   -0.1079    0.0742   -1.1580 H   0  0  0  0  0  0  0  0  0  0  0  0
    1.0921    1.6983    1.1414 H   0  0  0  0  0  0  0  0  0  0  0  0
    1.6828    1.5485   -0.5527 H   0  0  0  0  0  0  0  0  0  0  0  0
  1  2  1  0
  2  3  1  0
  3  4  1  0
  4  5  1  0
  5  6  1  0
  6  7  1  0
  7  8  1  0
  7  9  1  0
  9 10  1  0
 10 11  1  0
 11  2  1  0
 10  5  1  0
  1 12  1  0
  1 13  1  0
  3 14  1  0
  3 15  1  0
  4 16  1  0
  4 17  1  0
  6 18  1  0
  6 19  1  0
  7 20  1  6
  8 21  1  0
  9 22  1  0
  9 23  1  0
 10 24  1  6
 11 25  1  0
 11 26  1  0
M  END
$$$$

     RDKit          3D

 26 27  0  0  0  0  0  0  0  0999 V2000
   -2.6544   -0.9256   -0.4021 N   0  0  0  0  0  0  0  0  0  0  0  0
   -1.7000   -0.7527    0.6352 N   0  0  0  0  0  0  0  0  0  0  0  0
   -1.6511    0.6565    0.9108 C   0  0  0  0  0  0  0  0  0  0  0  0
   -1.1627    1.3511   -0.3390 C   0  0  0  0  0  0  0  0  0  0  0  0
    0.1730    0.9398   -0.5988 N   0  0  0  0  0  0  0  0  0  0  0  0
    1.0584    1.0463    0.5375 C   0  0  0  0  0  0  0  0  0  0  0  0
    2.3304    0.4346   -0.0699 C   0  0  1  0  0  0  0  0  0  0  0  0
    3.2145    0.0483    0.9043 O   0  0  0  0  0  0  0  0  0  0  0  0
    1.7401   -0.7247   -0.8458 C   0  0  0  0  0  0  0  0  0  0  0  0
    0.2317   -0.4857   -0.8675 C   0  0  1  0  0  0  0  0  0  0  0  0
   -0.4703   -1.3089    0.1690 C   0  0  0  0  0  0  0  0  0  0  0  0
   -3.4241   -0.2208   -0.3222 H   0  0  0  0  0  0  0  0  0  0  0  0
   -2.9727   -1.8953   -0.4834 H   0  0  0  0  0  0  0  0  0  0  0  0
   -2.7201    0.9919    1.0507 H   0  0  0  0  0  0  0  0  0  0  0  0
   -1.1197    0.9354    1.8156 H   0  0  0  0  0  0  0  0  0  0  0  0
   -1.3087    2.4280   -0.3370 H   0  0  0  0  0  0  0  0  0  0  0  0
   -1.8036    0.9491   -1.1783 H   0  0  0  0  0  0  0  0  0  0  0  0
    1.2180    2.0597    0.8959 H   0  0  0  0  0  0  0  0  0  0  0  0
    0.7760    0.3332    1.3612 H   0  0  0  0  0  0  0  0  0  0  0  0
    2.7330    1.2282   -0.7420 H   0  0  0  0  0  0  0  0  0  0  0  0
    4.0638   -0.1825    0.4861 H   0  0  0  0  0  0  0  0  0  0  0  0
    2.1316   -0.6218   -1.8919 H   0  0  0  0  0  0  0  0  0  0  0  0
    1.9983   -1.6989   -0.3989 H   0  0  0  0  0  0  0  0  0  0  0  0
   -0.1671   -0.6858   -1.8828 H   0  0  0  0  0  0  0  0  0  0  0  0
   -0.7225   -2.2939   -0.3215 H   0  0  0  0  0  0  0  0  0  0  0  0
    0.2085   -1.6054    1.0204 H   0  0  0  0  0  0  0  0  0  0  0  0
  1  2  1  0
  2  3  1  0
  3  4  1  0
  4  5  1  0
  5  6  1  0
  6  7  1  0
  7  8  1  0
  7  9  1  0
  9 10  1  0
 10 11  1  0
 11  2  1  0
 10  5  1  0
  1 12  1  0
  1 13  1  0
  3 14  1  0
  3 15  1  0
  4 16  1  0
  4 17  1  0
  6 18  1  0
  6 19  1  0
  7 20  1  6
  8 21  1  0
  9 22  1  0
  9 23  1  0
 10 24  1  6
 11 25  1  0
 11 26  1  0
M  END
$$$$

     RDKit          3D

 26 27  0  0  0  0  0  0  0  0999 V2000
    2.8515   -1.1563    0.1296 N   0  0  0  0  0  0  0  0  0  0  0  0
    2.1066   -0.4099   -0.8235 N   0  0  0  0  0  0  0  0  0  0  0  0
    1.8951    0.8850   -0.2626 C   0  0  0  0  0  0  0  0  0  0  0  0
    0.6198    1.5464   -0.6608 C   0  0  0  0  0  0  0  0  0  0  0  0
   -0.5300    0.7103   -0.6154 N   0  0  0  0  0  0  0  0  0  0  0  0
   -1.5636    1.1193    0.2686 C   0  0  0  0  0  0  0  0  0  0  0  0
   -2.2577   -0.1613    0.7532 C   0  0  1  0  0  0  0  0  0  0  0  0
   -3.5638   -0.2344    0.3429 O   0  0  0  0  0  0  0  0  0  0  0  0
   -1.3927   -1.2759    0.1469 C   0  0  0  0  0  0  0  0  0  0  0  0
   -0.1003   -0.5625   -0.0111 C   0  0  1  0  0  0  0  0  0  0  0  0
    0.8565   -1.1714   -0.9743 C   0  0  0  0  0  0  0  0  0  0  0  0
    3.7961   -0.7874    0.2665 H   0  0  0  0  0  0  0  0  0  0  0  0
    2.3377   -1.0620    1.0570 H   0  0  0  0  0  0  0  0  0  0  0  0
    1.9939    0.8898    0.8602 H   0  0  0  0  0  0  0  0  0  0  0  0
    2.7412    1.5444   -0.6092 H   0  0  0  0  0  0  0  0  0  0  0  0
    0.4533    2.4267   -0.0307 H   0  0  0  0  0  0  0  0  0  0  0  0
    0.7472    1.8872   -1.7295 H   0  0  0  0  0  0  0  0  0  0  0  0
   -2.3306    1.6683   -0.3273 H   0  0  0  0  0  0  0  0  0  0  0  0
   -1.1613    1.7018    1.0958 H   0  0  0  0  0  0  0  0  0  0  0  0
   -2.1027   -0.2127    1.8354 H   0  0  0  0  0  0  0  0  0  0  0  0
   -4.1373   -0.0834    1.1588 H   0  0  0  0  0  0  0  0  0  0  0  0
   -1.3122   -2.1370    0.8415 H   0  0  0  0  0  0  0  0  0  0  0  0
   -1.8199   -1.5904   -0.8344 H   0  0  0  0  0  0  0  0  0  0  0  0
    0.3175   -0.3579    0.9871 H   0  0  0  0  0  0  0  0  0  0  0  0
    0.5147   -0.9352   -2.0240 H   0  0  0  0  0  0  0  0  0  0  0  0
    1.0411   -2.2416   -0.8407 H   0  0  0  0  0  0  0  0  0  0  0  0
  1  2  1  0
  2  3  1  0
  3  4  1  0
  4  5  1  0
  5  6  1  0
  6  7  1  0
  7  8  1  0
  7  9  1  0
  9 10  1  0
 10 11  1  0
 11  2  1  0
 10  5  1  0
  1 12  1  0
  1 13  1  0
  3 14  1  0
  3 15  1  0
  4 16  1  0
  4 17  1  0
  6 18  1  0
  6 19  1  0
  7 20  1  1
  8 21  1  0
  9 22  1  0
  9 23  1  0
 10 24  1  1
 11 25  1  0
 11 26  1  0
M  END
$$$$

     RDKit          3D

 26 27  0  0  0  0  0  0  0  0999 V2000
    3.1016   -0.8738   -0.4194 N   0  0  0  0  0  0  0  0  0  0  0  0
    1.8841   -0.2804   -0.6935 N   0  0  0  0  0  0  0  0  0  0  0  0
    1.8765    1.0736   -0.2217 C   0  0  0  0  0  0  0  0  0  0  0  0
    0.5242    1.7252   -0.2766 C   0  0  0  0  0  0  0  0  0  0  0  0
   -0.5127    0.9578    0.3574 N   0  0  0  0  0  0  0  0  0  0  0  0
   -1.7392    0.9048   -0.3758 C   0  0  0  0  0  0  0  0  0  0  0  0
   -2.3996   -0.4156   -0.0886 C   0  0  1  0  0  0  0  0  0  0  0  0
   -2.5354   -1.1804   -1.2570 O   0  0  0  0  0  0  0  0  0  0  0  0
   -1.4359   -1.0853    0.8581 C   0  0  0  0  0  0  0  0  0  0  0  0
   -0.1280   -0.3747    0.7095 C   0  0  1  0  0  0  0  0  0  0  0  0
    0.7428   -1.0511   -0.3080 C   0  0  0  0  0  0  0  0  0  0  0  0
    3.7256   -0.3281    0.1953 H   0  0  0  0  0  0  0  0  0  0  0  0
    3.0508   -1.8872   -0.2036 H   0  0  0  0  0  0  0  0  0  0  0  0
    2.3112    1.1981    0.7905 H   0  0  0  0  0  0  0  0  0  0  0  0
    2.5425    1.6605   -0.9073 H   0  0  0  0  0  0  0  0  0  0  0  0
    0.2791    2.0344   -1.3120 H   0  0  0  0  0  0  0  0  0  0  0  0
    0.6107    2.6860    0.3035 H   0  0  0  0  0  0  0  0  0  0  0  0
   -2.3906    1.7318    0.0025 H   0  0  0  0  0  0  0  0  0  0  0  0
   -1.6384    1.0668   -1.4582 H   0  0  0  0  0  0  0  0  0  0  0  0
   -3.3865   -0.2537    0.3985 H   0  0  0  0  0  0  0  0  0  0  0  0
   -2.8868   -0.6209   -1.9912 H   0  0  0  0  0  0  0  0  0  0  0  0
   -1.8211   -0.8929    1.8954 H   0  0  0  0  0  0  0  0  0  0  0  0
   -1.3761   -2.1704    0.6961 H   0  0  0  0  0  0  0  0  0  0  0  0
    0.4079   -0.3246    1.6838 H   0  0  0  0  0  0  0  0  0  0  0  0
    1.0397   -2.0345    0.1018 H   0  0  0  0  0  0  0  0  0  0  0  0
    0.1535   -1.2655   -1.2296 H   0  0  0  0  0  0  0  0  0  0  0  0
  1  2  1  0
  2  3  1  0
  3  4  1  0
  4  5  1  0
  5  6  1  0
  6  7  1  0
  7  8  1  0
  7  9  1  0
  9 10  1  0
 10 11  1  0
 11  2  1  0
 10  5  1  0
  1 12  1  0
  1 13  1  0
  3 14  1  0
  3 15  1  0
  4 16  1  0
  4 17  1  0
  6 18  1  0
  6 19  1  0
  7 20  1  1
  8 21  1  0
  9 22  1  0
  9 23  1  0
 10 24  1  1
 11 25  1  0
 11 26  1  0
M  END
$$$$

     RDKit          3D

 26 27  0  0  0  0  0  0  0  0999 V2000
    3.4093   -0.3687   -0.2463 N   0  0  0  0  0  0  0  0  0  0  0  0
    2.1478    0.0120    0.1879 N   0  0  0  0  0  0  0  0  0  0  0  0
    1.8060    1.3213   -0.2677 C   0  0  0  0  0  0  0  0  0  0  0  0
    0.3302    1.4807   -0.5869 C   0  0  0  0  0  0  0  0  0  0  0  0
   -0.4130    0.7578    0.3960 N   0  0  0  0  0  0  0  0  0  0  0  0
   -1.8297    0.9180    0.3120 C   0  0  0  0  0  0  0  0  0  0  0  0
   -2.4378   -0.4378    0.0521 C   0  0  1  0  0  0  0  0  0  0  0  0
   -3.2689   -0.3876   -1.0613 O   0  0  0  0  0  0  0  0  0  0  0  0
   -1.2640   -1.3543   -0.2686 C   0  0  0  0  0  0  0  0  0  0  0  0
   -0.1309   -0.6445    0.4357 C   0  0  1  0  0  0  0  0  0  0  0  0
    1.1968   -1.0044   -0.1731 C   0  0  0  0  0  0  0  0  0  0  0  0
    3.8707   -0.9587    0.4678 H   0  0  0  0  0  0  0  0  0  0  0  0
    3.3765   -0.7835   -1.1966 H   0  0  0  0  0  0  0  0  0  0  0  0
    2.0726    2.0386    0.5566 H   0  0  0  0  0  0  0  0  0  0  0  0
    2.3813    1.6095   -1.1803 H   0  0  0  0  0  0  0  0  0  0  0  0
    0.1051    2.5668   -0.4432 H   0  0  0  0  0  0  0  0  0  0  0  0
    0.1545    1.1598   -1.6266 H   0  0  0  0  0  0  0  0  0  0  0  0
   -2.1874    1.2284    1.3358 H   0  0  0  0  0  0  0  0  0  0  0  0
   -2.1709    1.6966   -0.3800 H   0  0  0  0  0  0  0  0  0  0  0  0
   -2.9817   -0.8449    0.9188 H   0  0  0  0  0  0  0  0  0  0  0  0
   -4.1752   -0.1219   -0.7342 H   0  0  0  0  0  0  0  0  0  0  0  0
   -1.1058   -1.4042   -1.3748 H   0  0  0  0  0  0  0  0  0  0  0  0
   -1.4386   -2.3615    0.1661 H   0  0  0  0  0  0  0  0  0  0  0  0
   -0.1406   -0.9871    1.5017 H   0  0  0  0  0  0  0  0  0  0  0  0
    1.5430   -1.9590    0.2738 H   0  0  0  0  0  0  0  0  0  0  0  0
    1.1507   -1.1712   -1.2644 H   0  0  0  0  0  0  0  0  0  0  0  0
  1  2  1  0
  2  3  1  0
  3  4  1  0
  4  5  1  0
  5  6  1  0
  6  7  1  0
  7  8  1  0
  7  9  1  0
  9 10  1  0
 10 11  1  0
 11  2  1  0
 10  5  1  0
  1 12  1  0
  1 13  1  0
  3 14  1  0
  3 15  1  0
  4 16  1  0
  4 17  1  0
  6 18  1  0
  6 19  1  0
  7 20  1  1
  8 21  1  0
  9 22  1  0
  9 23  1  0
 10 24  1  1
 11 25  1  0
 11 26  1  0
M  END
$$$$

     RDKit          3D

 26 27  0  0  0  0  0  0  0  0999 V2000
   -3.0041    1.3670    0.3495 N   0  0  0  0  0  0  0  0  0  0  0  0
   -2.1328    0.4531   -0.2878 N   0  0  0  0  0  0  0  0  0  0  0  0
   -2.0432   -0.7640    0.4698 C   0  0  0  0  0  0  0  0  0  0  0  0
   -0.8166   -1.5195   -0.0588 C   0  0  0  0  0  0  0  0  0  0  0  0
    0.3211   -0.8047    0.4531 N   0  0  0  0  0  0  0  0  0  0  0  0
    1.5820   -1.3015    0.0274 C   0  0  0  0  0  0  0  0  0  0  0  0
    2.4914   -0.0810    0.2038 C   0  0  1  0  0  0  0  0  0  0  0  0
    3.6723   -0.2003   -0.4766 O   0  0  0  0  0  0  0  0  0  0  0  0
    1.5783    1.0015   -0.3897 C   0  0  0  0  0  0  0  0  0  0  0  0
    0.2586    0.6011    0.2412 C   0  0  1  0  0  0  0  0  0  0  0  0
   -0.8848    1.0585   -0.6003 C   0  0  0  0  0  0  0  0  0  0  0  0
   -3.8170    0.8180    0.7116 H   0  0  0  0  0  0  0  0  0  0  0  0
   -3.3756    2.0154   -0.3929 H   0  0  0  0  0  0  0  0  0  0  0  0
   -1.7957   -0.5454    1.5446 H   0  0  0  0  0  0  0  0  0  0  0  0
   -2.9502   -1.3630    0.4030 H   0  0  0  0  0  0  0  0  0  0  0  0
   -0.7775   -2.5494    0.2994 H   0  0  0  0  0  0  0  0  0  0  0  0
   -0.9010   -1.5095   -1.1515 H   0  0  0  0  0  0  0  0  0  0  0  0
    1.6066   -1.6804   -1.0106 H   0  0  0  0  0  0  0  0  0  0  0  0
    1.9251   -2.0885    0.7137 H   0  0  0  0  0  0  0  0  0  0  0  0
    2.5901    0.0603    1.2934 H   0  0  0  0  0  0  0  0  0  0  0  0
    4.4066    0.0646    0.1600 H   0  0  0  0  0  0  0  0  0  0  0  0
    1.9203    1.9937   -0.0975 H   0  0  0  0  0  0  0  0  0  0  0  0
    1.5726    0.8207   -1.4872 H   0  0  0  0  0  0  0  0  0  0  0  0
    0.2239    1.1190    1.2311 H   0  0  0  0  0  0  0  0  0  0  0  0
   -0.6554    0.8697   -1.6670 H   0  0  0  0  0  0  0  0  0  0  0  0
   -0.9950    2.1647   -0.4820 H   0  0  0  0  0  0  0  0  0  0  0  0
  1  2  1  0
  2  3  1  0
  3  4  1  0
  4  5  1  0
  5  6  1  0
  6  7  1  0
  7  8  1  0
  7  9  1  0
  9 10  1  0
 10 11  1  0
 11  2  1  0
 10  5  1  0
  1 12  1  0
  1 13  1  0
  3 14  1  0
  3 15  1  0
  4 16  1  0
  4 17  1  0
  6 18  1  0
  6 19  1  0
  7 20  1  1
  8 21  1  0
  9 22  1  0
  9 23  1  0
 10 24  1  1
 11 25  1  0
 11 26  1  0
M  END
$$$$

     RDKit          3D

 26 27  0  0  0  0  0  0  0  0999 V2000
    3.3600    0.2179    0.0944 N   0  0  0  0  0  0  0  0  0  0  0  0
    1.9984    0.0175    0.4420 N   0  0  0  0  0  0  0  0  0  0  0  0
    1.7033   -1.3555    0.1295 C   0  0  0  0  0  0  0  0  0  0  0  0
    0.2660   -1.7237    0.2895 C   0  0  0  0  0  0  0  0  0  0  0  0
   -0.5212   -0.5131    0.5352 N   0  0  0  0  0  0  0  0  0  0  0  0
   -1.9336   -0.7392    0.2647 C   0  0  0  0  0  0  0  0  0  0  0  0
   -2.4720    0.5451   -0.3155 C   0  0  1  0  0  0  0  0  0  0  0  0
   -3.4357    1.1328    0.5115 O   0  0  0  0  0  0  0  0  0  0  0  0
   -1.2373    1.4528   -0.4125 C   0  0  0  0  0  0  0  0  0  0  0  0
   -0.1425    0.4154   -0.5389 C   0  0  1  0  0  0  0  0  0  0  0  0
    1.2255    0.9624   -0.3253 C   0  0  0  0  0  0  0  0  0  0  0  0
    3.5384    1.2101   -0.1861 H   0  0  0  0  0  0  0  0  0  0  0  0
    3.5726   -0.3499   -0.7700 H   0  0  0  0  0  0  0  0  0  0  0  0
    2.2994   -1.9878    0.8083 H   0  0  0  0  0  0  0  0  0  0  0  0
    2.0472   -1.5976   -0.9063 H   0  0  0  0  0  0  0  0  0  0  0  0
   -0.1368   -2.1411   -0.6679 H   0  0  0  0  0  0  0  0  0  0  0  0
    0.1012   -2.4606    1.1057 H   0  0  0  0  0  0  0  0  0  0  0  0
   -1.9721   -1.5738   -0.4724 H   0  0  0  0  0  0  0  0  0  0  0  0
   -2.4508   -0.9854    1.2159 H   0  0  0  0  0  0  0  0  0  0  0  0
   -2.8662    0.3447   -1.3235 H   0  0  0  0  0  0  0  0  0  0  0  0
   -3.2507    2.1111    0.4794 H   0  0  0  0  0  0  0  0  0  0  0  0
   -1.1109    2.0101    0.5327 H   0  0  0  0  0  0  0  0  0  0  0  0
   -1.2942    2.1286   -1.2764 H   0  0  0  0  0  0  0  0  0  0  0  0
   -0.2652   -0.1444   -1.4790 H   0  0  0  0  0  0  0  0  0  0  0  0
    1.2352    1.9488    0.1811 H   0  0  0  0  0  0  0  0  0  0  0  0
    1.7418    1.0749   -1.3142 H   0  0  0  0  0  0  0  0  0  0  0  0
  1  2  1  0
  2  3  1  0
  3  4  1  0
  4  5  1  0
  5  6  1  0
  6  7  1  0
  7  8  1  0
  7  9  1  0
  9 10  1  0
 10 11  1  0
 11  2  1  0
 10  5  1  0
  1 12  1  0
  1 13  1  0
  3 14  1  0
  3 15  1  0
  4 16  1  0
  4 17  1  0
  6 18  1  0
  6 19  1  0
  7 20  1  6
  8 21  1  0
  9 22  1  0
  9 23  1  0
 10 24  1  6
 11 25  1  0
 11 26  1  0
M  END
$$$$

     RDKit          3D

 26 27  0  0  0  0  0  0  0  0999 V2000
    2.9764    0.9782    0.4606 N   0  0  0  0  0  0  0  0  0  0  0  0
    2.1283    0.3267   -0.4094 N   0  0  0  0  0  0  0  0  0  0  0  0
    1.8697   -1.0345   -0.0875 C   0  0  0  0  0  0  0  0  0  0  0  0
    0.7492   -1.2365    0.9004 C   0  0  0  0  0  0  0  0  0  0  0  0
   -0.3693   -0.4517    0.5441 N   0  0  0  0  0  0  0  0  0  0  0  0
   -1.5975   -1.1601    0.3533 C   0  0  0  0  0  0  0  0  0  0  0  0
   -2.4979   -0.0473   -0.1843 C   0  0  1  0  0  0  0  0  0  0  0  0
   -3.2811    0.4528    0.8457 O   0  0  0  0  0  0  0  0  0  0  0  0
   -1.5450    1.0070   -0.7403 C   0  0  0  0  0  0  0  0  0  0  0  0
   -0.2351    0.2224   -0.7462 C   0  0  1  0  0  0  0  0  0  0  0  0
    0.9675    1.0861   -0.7820 C   0  0  0  0  0  0  0  0  0  0  0  0
    2.7442    0.8514    1.4638 H   0  0  0  0  0  0  0  0  0  0  0  0
    2.9274    2.0017    0.2411 H   0  0  0  0  0  0  0  0  0  0  0  0
    2.7960   -1.4411    0.4091 H   0  0  0  0  0  0  0  0  0  0  0  0
    1.6898   -1.6328   -0.9961 H   0  0  0  0  0  0  0  0  0  0  0  0
    0.5516   -2.3050    1.0136 H   0  0  0  0  0  0  0  0  0  0  0  0
    1.1392   -0.8523    1.8887 H   0  0  0  0  0  0  0  0  0  0  0  0
   -2.0039   -1.6409    1.2406 H   0  0  0  0  0  0  0  0  0  0  0  0
   -1.4906   -1.9169   -0.4769 H   0  0  0  0  0  0  0  0  0  0  0  0
   -3.1544   -0.4063   -0.9808 H   0  0  0  0  0  0  0  0  0  0  0  0
   -2.7717    1.1028    1.3896 H   0  0  0  0  0  0  0  0  0  0  0  0
   -1.3881    1.8319   -0.0012 H   0  0  0  0  0  0  0  0  0  0  0  0
   -1.8341    1.3623   -1.7273 H   0  0  0  0  0  0  0  0  0  0  0  0
   -0.2978   -0.4741   -1.5931 H   0  0  0  0  0  0  0  0  0  0  0  0
    0.7993    1.9772   -0.1701 H   0  0  0  0  0  0  0  0  0  0  0  0
    1.1278    1.3990   -1.8556 H   0  0  0  0  0  0  0  0  0  0  0  0
  1  2  1  0
  2  3  1  0
  3  4  1  0
  4  5  1  0
  5  6  1  0
  6  7  1  0
  7  8  1  0
  7  9  1  0
  9 10  1  0
 10 11  1  0
 11  2  1  0
 10  5  1  0
  1 12  1  0
  1 13  1  0
  3 14  1  0
  3 15  1  0
  4 16  1  0
  4 17  1  0
  6 18  1  0
  6 19  1  0
  7 20  1  6
  8 21  1  0
  9 22  1  0
  9 23  1  0
 10 24  1  6
 11 25  1  0
 11 26  1  0
M  END
$$$$
