
     RDKit          3D

 23 22  0  0  0  0  0  0  0  0999 V2000
   -0.1877    2.1527    0.6844 C   0  0  0  0  0  0  0  0  0  0  0  0
   -0.3024    0.6568    0.9989 C   0  0  0  0  0  0  0  0  0  0  0  0
   -0.2938   -0.0560   -0.2455 N   0  0  0  0  0  0  0  0  0  0  0  0
   -1.5579   -0.3340   -0.8852 C   0  0  0  0  0  0  0  0  0  0  0  0
   -2.1231   -1.6327   -0.4480 C   0  0  0  0  0  0  0  0  0  0  0  0
   -1.4889   -2.3262    0.3857 O   0  0  0  0  0  0  0  0  0  0  0  0
   -3.3224   -2.0995   -0.9297 O   0  0  0  0  0  0  0  0  0  0  0  0
    0.8901   -0.4773   -0.8394 C   0  0  0  0  0  0  0  0  0  0  0  0
    0.7734   -1.1295   -1.9472 O   0  0  0  0  0  0  0  0  0  0  0  0
    2.2764   -0.2960   -0.4026 C   0  0  0  0  0  0  0  0  0  0  0  0
    2.4918    0.4179    0.8006 N   0  0  0  0  0  0  0  0  0  0  0  0
   -1.1425    2.4248    0.1799 H   0  0  0  0  0  0  0  0  0  0  0  0
    0.6235    2.3339   -0.0433 H   0  0  0  0  0  0  0  0  0  0  0  0
   -0.0788    2.7151    1.6182 H   0  0  0  0  0  0  0  0  0  0  0  0
   -1.3201    0.5477    1.4883 H   0  0  0  0  0  0  0  0  0  0  0  0
    0.4088    0.3349    1.7538 H   0  0  0  0  0  0  0  0  0  0  0  0
   -2.2718    0.4758   -0.6367 H   0  0  0  0  0  0  0  0  0  0  0  0
   -1.3660   -0.3089   -1.9918 H   0  0  0  0  0  0  0  0  0  0  0  0
   -3.6725   -3.0237   -0.7631 H   0  0  0  0  0  0  0  0  0  0  0  0
    2.9280    0.1278   -1.2047 H   0  0  0  0  0  0  0  0  0  0  0  0
    2.6891   -1.3412   -0.2411 H   0  0  0  0  0  0  0  0  0  0  0  0
    3.3121    1.0526    0.6896 H   0  0  0  0  0  0  0  0  0  0  0  0
    2.7347   -0.2150    1.5951 H   0  0  0  0  0  0  0  0  0  0  0  0
  1  2  1  0
  2  3  1  0
  3  4  1  0
  4  5  1  0
  5  6  2  0
  5  7  1  0
  3  8  1  0
  8  9  2  0
  8 10  1  0
 10 11  1  0
  1 12  1  0
  1 13  1  0
  1 14  1  0
  2 15  1  0
  2 16  1  0
  4 17  1  0
  4 18  1  0
  7 19  1  0
 10 20  1  0
 10 21  1  0
 11 22  1  0
 11 23  1  0
M  END
$$$$

     RDKit          3D

 23 22  0  0  0  0  0  0  0  0999 V2000
   -1.2230   -2.3250   -1.0172 C   0  0  0  0  0  0  0  0  0  0  0  0
   -1.0715   -0.8597   -1.2552 C   0  0  0  0  0  0  0  0  0  0  0  0
   -0.1521   -0.2531   -0.2449 N   0  0  0  0  0  0  0  0  0  0  0  0
   -0.6890    0.2214    0.9955 C   0  0  0  0  0  0  0  0  0  0  0  0
   -1.0247    1.6459    1.0232 C   0  0  0  0  0  0  0  0  0  0  0  0
   -0.8591    2.4047    0.0400 O   0  0  0  0  0  0  0  0  0  0  0  0
   -1.5476    2.1751    2.1871 O   0  0  0  0  0  0  0  0  0  0  0  0
    1.2060   -0.2476   -0.6283 C   0  0  0  0  0  0  0  0  0  0  0  0
    1.5165   -0.8021   -1.7553 O   0  0  0  0  0  0  0  0  0  0  0  0
    2.2863    0.3381    0.1493 C   0  0  0  0  0  0  0  0  0  0  0  0
    1.8593    0.9453    1.3502 N   0  0  0  0  0  0  0  0  0  0  0  0
   -2.2892   -2.5799   -0.8446 H   0  0  0  0  0  0  0  0  0  0  0  0
   -0.6113   -2.7079   -0.1801 H   0  0  0  0  0  0  0  0  0  0  0  0
   -0.9143   -2.8774   -1.9275 H   0  0  0  0  0  0  0  0  0  0  0  0
   -0.6959   -0.6586   -2.2615 H   0  0  0  0  0  0  0  0  0  0  0  0
   -2.0474   -0.3484   -1.1513 H   0  0  0  0  0  0  0  0  0  0  0  0
   -1.6960   -0.3119    1.1077 H   0  0  0  0  0  0  0  0  0  0  0  0
   -0.0439   -0.0875    1.8287 H   0  0  0  0  0  0  0  0  0  0  0  0
   -2.0539    3.0428    2.2489 H   0  0  0  0  0  0  0  0  0  0  0  0
    2.8081    1.1112   -0.4686 H   0  0  0  0  0  0  0  0  0  0  0  0
    3.1018   -0.4263    0.3391 H   0  0  0  0  0  0  0  0  0  0  0  0
    1.8448    1.9806    1.2640 H   0  0  0  0  0  0  0  0  0  0  0  0
    2.2960    0.6200    2.2218 H   0  0  0  0  0  0  0  0  0  0  0  0
  1  2  1  0
  2  3  1  0
  3  4  1  0
  4  5  1  0
  5  6  2  0
  5  7  1  0
  3  8  1  0
  8  9  2  0
  8 10  1  0
 10 11  1  0
  1 12  1  0
  1 13  1  0
  1 14  1  0
  2 15  1  0
  2 16  1  0
  4 17  1  0
  4 18  1  0
  7 19  1  0
 10 20  1  0
 10 21  1  0
 11 22  1  0
 11 23  1  0
M  END
$$$$

     RDKit          3D

 23 22  0  0  0  0  0  0  0  0999 V2000
   -0.0783    2.4044   -0.3422 C   0  0  0  0  0  0  0  0  0  0  0  0
    0.1697    1.0225   -0.8644 C   0  0  0  0  0  0  0  0  0  0  0  0
    0.3832    0.0450    0.1846 N   0  0  0  0  0  0  0  0  0  0  0  0
    1.6871   -0.2446    0.7057 C   0  0  0  0  0  0  0  0  0  0  0  0
    2.3750   -1.3293   -0.0161 C   0  0  0  0  0  0  0  0  0  0  0  0
    1.8309   -1.9036   -0.9770 O   0  0  0  0  0  0  0  0  0  0  0  0
    3.6354   -1.7087    0.3811 O   0  0  0  0  0  0  0  0  0  0  0  0
   -0.7524   -0.6371    0.6987 C   0  0  0  0  0  0  0  0  0  0  0  0
   -0.5582   -1.4824    1.6073 O   0  0  0  0  0  0  0  0  0  0  0  0
   -2.1323   -0.3658    0.1839 C   0  0  0  0  0  0  0  0  0  0  0  0
   -3.0397   -1.2051    0.8997 N   0  0  0  0  0  0  0  0  0  0  0  0
   -0.6064    2.4187    0.6158 H   0  0  0  0  0  0  0  0  0  0  0  0
   -0.7128    2.9733   -1.0790 H   0  0  0  0  0  0  0  0  0  0  0  0
    0.8876    2.9362   -0.2520 H   0  0  0  0  0  0  0  0  0  0  0  0
    1.0998    1.0412   -1.4709 H   0  0  0  0  0  0  0  0  0  0  0  0
   -0.6746    0.7264   -1.4900 H   0  0  0  0  0  0  0  0  0  0  0  0
    1.6201   -0.5554    1.7741 H   0  0  0  0  0  0  0  0  0  0  0  0
    2.2759    0.7038    0.7134 H   0  0  0  0  0  0  0  0  0  0  0  0
    4.2809   -2.2262   -0.1994 H   0  0  0  0  0  0  0  0  0  0  0  0
   -2.4179    0.6910    0.3639 H   0  0  0  0  0  0  0  0  0  0  0  0
   -2.1543   -0.5525   -0.9099 H   0  0  0  0  0  0  0  0  0  0  0  0
   -3.3529   -2.0435    0.3941 H   0  0  0  0  0  0  0  0  0  0  0  0
   -3.7660   -0.7083    1.4352 H   0  0  0  0  0  0  0  0  0  0  0  0
  1  2  1  0
  2  3  1  0
  3  4  1  0
  4  5  1  0
  5  6  2  0
  5  7  1  0
  3  8  1  0
  8  9  2  0
  8 10  1  0
 10 11  1  0
  1 12  1  0
  1 13  1  0
  1 14  1  0
  2 15  1  0
  2 16  1  0
  4 17  1  0
  4 18  1  0
  7 19  1  0
 10 20  1  0
 10 21  1  0
 11 22  1  0
 11 23  1  0
M  END
$$$$

     RDKit          3D

 23 22  0  0  0  0  0  0  0  0999 V2000
   -0.2629   -1.7417    1.2613 C   0  0  0  0  0  0  0  0  0  0  0  0
   -0.2546   -1.4701   -0.2122 C   0  0  0  0  0  0  0  0  0  0  0  0
   -0.4305   -0.0827   -0.5485 N   0  0  0  0  0  0  0  0  0  0  0  0
   -1.7385    0.4650   -0.7578 C   0  0  0  0  0  0  0  0  0  0  0  0
   -2.3408    0.9955    0.4920 C   0  0  0  0  0  0  0  0  0  0  0  0
   -3.4878    1.5074    0.4628 O   0  0  0  0  0  0  0  0  0  0  0  0
   -1.6942    0.9573    1.7192 O   0  0  0  0  0  0  0  0  0  0  0  0
    0.7232    0.7242   -0.6666 C   0  0  0  0  0  0  0  0  0  0  0  0
    0.5564    1.9467   -0.9636 O   0  0  0  0  0  0  0  0  0  0  0  0
    2.0982    0.2105   -0.4612 C   0  0  0  0  0  0  0  0  0  0  0  0
    3.0213    1.2995   -0.6596 N   0  0  0  0  0  0  0  0  0  0  0  0
    0.3668   -1.0566    1.8400 H   0  0  0  0  0  0  0  0  0  0  0  0
    0.1352   -2.7871    1.3987 H   0  0  0  0  0  0  0  0  0  0  0  0
   -1.3075   -1.7639    1.6332 H   0  0  0  0  0  0  0  0  0  0  0  0
    0.7174   -1.8785   -0.6139 H   0  0  0  0  0  0  0  0  0  0  0  0
   -1.0366   -2.1201   -0.6773 H   0  0  0  0  0  0  0  0  0  0  0  0
   -1.7243    1.3098   -1.5082 H   0  0  0  0  0  0  0  0  0  0  0  0
   -2.4420   -0.2843   -1.2257 H   0  0  0  0  0  0  0  0  0  0  0  0
   -2.0534    1.5065    2.5152 H   0  0  0  0  0  0  0  0  0  0  0  0
    2.2615   -0.2421    0.5213 H   0  0  0  0  0  0  0  0  0  0  0  0
    2.3391   -0.5590   -1.2292 H   0  0  0  0  0  0  0  0  0  0  0  0
    2.6243    2.0766   -1.2275 H   0  0  0  0  0  0  0  0  0  0  0  0
    3.9297    0.9872   -1.0923 H   0  0  0  0  0  0  0  0  0  0  0  0
  1  2  1  0
  2  3  1  0
  3  4  1  0
  4  5  1  0
  5  6  2  0
  5  7  1  0
  3  8  1  0
  8  9  2  0
  8 10  1  0
 10 11  1  0
  1 12  1  0
  1 13  1  0
  1 14  1  0
  2 15  1  0
  2 16  1  0
  4 17  1  0
  4 18  1  0
  7 19  1  0
 10 20  1  0
 10 21  1  0
 11 22  1  0
 11 23  1  0
M  END
$$$$

     RDKit          3D

 23 22  0  0  0  0  0  0  0  0999 V2000
   -0.5695    1.4568    1.1048 C   0  0  0  0  0  0  0  0  0  0  0  0
   -0.0770    0.0408    1.3057 C   0  0  0  0  0  0  0  0  0  0  0  0
   -0.0815   -0.7452    0.1118 N   0  0  0  0  0  0  0  0  0  0  0  0
   -1.2859   -1.5282   -0.1629 C   0  0  0  0  0  0  0  0  0  0  0  0
   -2.2672   -0.7892   -0.9485 C   0  0  0  0  0  0  0  0  0  0  0  0
   -3.3537   -1.3301   -1.2581 O   0  0  0  0  0  0  0  0  0  0  0  0
   -2.0480    0.5072   -1.3753 O   0  0  0  0  0  0  0  0  0  0  0  0
    0.9708   -0.8109   -0.7908 C   0  0  0  0  0  0  0  0  0  0  0  0
    0.8241   -1.5979   -1.8100 O   0  0  0  0  0  0  0  0  0  0  0  0
    2.2366   -0.0964   -0.7380 C   0  0  0  0  0  0  0  0  0  0  0  0
    2.3734    0.7769    0.3796 N   0  0  0  0  0  0  0  0  0  0  0  0
   -0.2156    2.0819    1.9758 H   0  0  0  0  0  0  0  0  0  0  0  0
   -1.6788    1.4875    1.1671 H   0  0  0  0  0  0  0  0  0  0  0  0
   -0.2562    1.9096    0.1607 H   0  0  0  0  0  0  0  0  0  0  0  0
   -0.8121   -0.4117    2.0725 H   0  0  0  0  0  0  0  0  0  0  0  0
    0.8600    0.0624    1.8823 H   0  0  0  0  0  0  0  0  0  0  0  0
   -0.9998   -2.4799   -0.6763 H   0  0  0  0  0  0  0  0  0  0  0  0
   -1.6772   -1.8542    0.8224 H   0  0  0  0  0  0  0  0  0  0  0  0
   -2.8355    1.1331   -1.5966 H   0  0  0  0  0  0  0  0  0  0  0  0
    2.3192    0.5326   -1.6774 H   0  0  0  0  0  0  0  0  0  0  0  0
    3.1281   -0.7803   -0.8309 H   0  0  0  0  0  0  0  0  0  0  0  0
    3.3128    0.6905    0.7918 H   0  0  0  0  0  0  0  0  0  0  0  0
    2.1331    1.7448    0.0903 H   0  0  0  0  0  0  0  0  0  0  0  0
  1  2  1  0
  2  3  1  0
  3  4  1  0
  4  5  1  0
  5  6  2  0
  5  7  1  0
  3  8  1  0
  8  9  2  0
  8 10  1  0
 10 11  1  0
  1 12  1  0
  1 13  1  0
  1 14  1  0
  2 15  1  0
  2 16  1  0
  4 17  1  0
  4 18  1  0
  7 19  1  0
 10 20  1  0
 10 21  1  0
 11 22  1  0
 11 23  1  0
M  END
$$$$

     RDKit          3D

 23 22  0  0  0  0  0  0  0  0999 V2000
   -1.6994    2.3487    0.1598 C   0  0  0  0  0  0  0  0  0  0  0  0
   -1.3492    1.0344    0.7967 C   0  0  0  0  0  0  0  0  0  0  0  0
   -0.4065    0.2655    0.0442 N   0  0  0  0  0  0  0  0  0  0  0  0
   -0.8488   -0.6801   -0.9588 C   0  0  0  0  0  0  0  0  0  0  0  0
   -1.0664   -2.0270   -0.4051 C   0  0  0  0  0  0  0  0  0  0  0  0
   -1.4483   -2.9442   -1.1518 O   0  0  0  0  0  0  0  0  0  0  0  0
   -0.8490   -2.2696    0.9286 O   0  0  0  0  0  0  0  0  0  0  0  0
    0.9868    0.4025    0.2548 C   0  0  0  0  0  0  0  0  0  0  0  0
    1.4072    1.2133    1.1184 O   0  0  0  0  0  0  0  0  0  0  0  0
    1.9671   -0.3895   -0.5209 C   0  0  0  0  0  0  0  0  0  0  0  0
    3.3155   -0.0623   -0.1126 N   0  0  0  0  0  0  0  0  0  0  0  0
   -0.9612    3.1462    0.3868 H   0  0  0  0  0  0  0  0  0  0  0  0
   -1.8442    2.3088   -0.9196 H   0  0  0  0  0  0  0  0  0  0  0  0
   -2.6668    2.7148    0.6056 H   0  0  0  0  0  0  0  0  0  0  0  0
   -2.2723    0.4604    1.0487 H   0  0  0  0  0  0  0  0  0  0  0  0
   -0.8739    1.2764    1.7895 H   0  0  0  0  0  0  0  0  0  0  0  0
   -1.7925   -0.3057   -1.4497 H   0  0  0  0  0  0  0  0  0  0  0  0
   -0.1247   -0.7580   -1.8154 H   0  0  0  0  0  0  0  0  0  0  0  0
   -0.6578   -3.2333    1.2304 H   0  0  0  0  0  0  0  0  0  0  0  0
    1.8056   -0.1503   -1.5990 H   0  0  0  0  0  0  0  0  0  0  0  0
    1.8274   -1.4762   -0.3286 H   0  0  0  0  0  0  0  0  0  0  0  0
    4.0247   -0.3171   -0.8085 H   0  0  0  0  0  0  0  0  0  0  0  0
    3.5268   -0.5579    0.7785 H   0  0  0  0  0  0  0  0  0  0  0  0
  1  2  1  0
  2  3  1  0
  3  4  1  0
  4  5  1  0
  5  6  2  0
  5  7  1  0
  3  8  1  0
  8  9  2  0
  8 10  1  0
 10 11  1  0
  1 12  1  0
  1 13  1  0
  1 14  1  0
  2 15  1  0
  2 16  1  0
  4 17  1  0
  4 18  1  0
  7 19  1  0
 10 20  1  0
 10 21  1  0
 11 22  1  0
 11 23  1  0
M  END
$$$$

     RDKit          3D

 23 22  0  0  0  0  0  0  0  0999 V2000
   -0.2928    1.9353   -1.1412 C   0  0  0  0  0  0  0  0  0  0  0  0
   -0.4204    0.4329   -1.0381 C   0  0  0  0  0  0  0  0  0  0  0  0
   -0.3537   -0.0217    0.3303 N   0  0  0  0  0  0  0  0  0  0  0  0
   -1.5890   -0.1959    1.1002 C   0  0  0  0  0  0  0  0  0  0  0  0
   -2.1382   -1.5445    0.9759 C   0  0  0  0  0  0  0  0  0  0  0  0
   -3.2004   -1.8049    1.5979 O   0  0  0  0  0  0  0  0  0  0  0  0
   -1.5872   -2.5652    0.2286 O   0  0  0  0  0  0  0  0  0  0  0  0
    0.8465   -0.3035    0.9565 C   0  0  0  0  0  0  0  0  0  0  0  0
    0.8210   -0.7623    2.1641 O   0  0  0  0  0  0  0  0  0  0  0  0
    2.1786   -0.1345    0.3943 C   0  0  0  0  0  0  0  0  0  0  0  0
    2.2826    0.3901   -0.9154 N   0  0  0  0  0  0  0  0  0  0  0  0
    0.3813    2.1559   -2.0152 H   0  0  0  0  0  0  0  0  0  0  0  0
   -1.2564    2.4015   -1.3833 H   0  0  0  0  0  0  0  0  0  0  0  0
    0.1629    2.3656   -0.2237 H   0  0  0  0  0  0  0  0  0  0  0  0
   -1.4837    0.1587   -1.4165 H   0  0  0  0  0  0  0  0  0  0  0  0
    0.2920   -0.0748   -1.6968 H   0  0  0  0  0  0  0  0  0  0  0  0
   -2.3804    0.5212    0.7494 H   0  0  0  0  0  0  0  0  0  0  0  0
   -1.3278    0.0521    2.1456 H   0  0  0  0  0  0  0  0  0  0  0  0
   -1.9326   -3.5228    0.2817 H   0  0  0  0  0  0  0  0  0  0  0  0
    2.7921    0.5669    1.0582 H   0  0  0  0  0  0  0  0  0  0  0  0
    2.7808   -1.0786    0.4304 H   0  0  0  0  0  0  0  0  0  0  0  0
    2.7381    1.3244   -0.9819 H   0  0  0  0  0  0  0  0  0  0  0  0
    2.6867   -0.2960   -1.6013 H   0  0  0  0  0  0  0  0  0  0  0  0
  1  2  1  0
  2  3  1  0
  3  4  1  0
  4  5  1  0
  5  6  2  0
  5  7  1  0
  3  8  1  0
  8  9  2  0
  8 10  1  0
 10 11  1  0
  1 12  1  0
  1 13  1  0
  1 14  1  0
  2 15  1  0
  2 16  1  0
  4 17  1  0
  4 18  1  0
  7 19  1  0
 10 20  1  0
 10 21  1  0
 11 22  1  0
 11 23  1  0
M  END
$$$$

     RDKit          3D

 23 22  0  0  0  0  0  0  0  0999 V2000
   -1.0386    2.6084    0.2391 C   0  0  0  0  0  0  0  0  0  0  0  0
   -1.0354    1.3986   -0.6567 C   0  0  0  0  0  0  0  0  0  0  0  0
   -0.2636    0.3143   -0.1180 N   0  0  0  0  0  0  0  0  0  0  0  0
   -0.9445   -0.6308    0.7262 C   0  0  0  0  0  0  0  0  0  0  0  0
   -1.5068   -1.7540   -0.0649 C   0  0  0  0  0  0  0  0  0  0  0  0
   -1.3328   -1.7464   -1.3028 O   0  0  0  0  0  0  0  0  0  0  0  0
   -2.1985   -2.7667    0.5699 O   0  0  0  0  0  0  0  0  0  0  0  0
    1.1156    0.1753   -0.4034 C   0  0  0  0  0  0  0  0  0  0  0  0
    1.6980    1.0327   -1.1598 O   0  0  0  0  0  0  0  0  0  0  0  0
    1.9696   -0.8968    0.1043 C   0  0  0  0  0  0  0  0  0  0  0  0
    3.3282   -0.7562   -0.3694 N   0  0  0  0  0  0  0  0  0  0  0  0
   -1.5054    2.3474    1.2222 H   0  0  0  0  0  0  0  0  0  0  0  0
   -0.0582    3.0883    0.3353 H   0  0  0  0  0  0  0  0  0  0  0  0
   -1.7355    3.3533   -0.2187 H   0  0  0  0  0  0  0  0  0  0  0  0
   -2.1196    1.1139   -0.7958 H   0  0  0  0  0  0  0  0  0  0  0  0
   -0.6914    1.6952   -1.6708 H   0  0  0  0  0  0  0  0  0  0  0  0
   -0.2630   -1.1007    1.4705 H   0  0  0  0  0  0  0  0  0  0  0  0
   -1.7443   -0.1361    1.3420 H   0  0  0  0  0  0  0  0  0  0  0  0
   -2.7983   -3.4123    0.0373 H   0  0  0  0  0  0  0  0  0  0  0  0
    1.5513   -1.8931   -0.2186 H   0  0  0  0  0  0  0  0  0  0  0  0
    2.0220   -0.9575    1.2084 H   0  0  0  0  0  0  0  0  0  0  0  0
    3.6053    0.2189   -0.5373 H   0  0  0  0  0  0  0  0  0  0  0  0
    3.9458   -1.2958    0.2612 H   0  0  0  0  0  0  0  0  0  0  0  0
  1  2  1  0
  2  3  1  0
  3  4  1  0
  4  5  1  0
  5  6  2  0
  5  7  1  0
  3  8  1  0
  8  9  2  0
  8 10  1  0
 10 11  1  0
  1 12  1  0
  1 13  1  0
  1 14  1  0
  2 15  1  0
  2 16  1  0
  4 17  1  0
  4 18  1  0
  7 19  1  0
 10 20  1  0
 10 21  1  0
 11 22  1  0
 11 23  1  0
M  END
$$$$
