
     RDKit          3D

 23 22  0  0  0  0  0  0  0  0999 V2000
    4.0886    0.7785    0.3074 C   0  0  0  0  0  0  0  0  0  0  0  0
    2.8874    0.1214    0.7645 N   0  0  0  0  0  0  0  0  0  0  0  0
    1.7391    0.0153   -0.0753 C   0  0  0  0  0  0  0  0  0  0  0  0
    1.8148    0.5151   -1.2226 O   0  0  0  0  0  0  0  0  0  0  0  0
    0.4888   -0.6627    0.3829 C   0  0  0  0  0  0  0  0  0  0  0  0
   -0.4595   -0.6670   -0.7762 C   0  0  0  0  0  0  0  0  0  0  0  0
   -1.7135   -1.2667   -0.5740 N   0  0  0  0  0  0  0  0  0  0  0  0
   -2.6570   -0.6737    0.2840 C   0  0  0  0  0  0  0  0  0  0  0  0
   -3.2297    0.6134   -0.2172 C   0  0  0  0  0  0  0  0  0  0  0  0
   -2.8625    1.1213   -1.3154 O   0  0  0  0  0  0  0  0  0  0  0  0
   -4.1826    1.2792    0.5199 O   0  0  0  0  0  0  0  0  0  0  0  0
    4.7968    0.9773    1.1396 H   0  0  0  0  0  0  0  0  0  0  0  0
    4.6366    0.0823   -0.3801 H   0  0  0  0  0  0  0  0  0  0  0  0
    3.8070    1.6926   -0.2267 H   0  0  0  0  0  0  0  0  0  0  0  0
    2.7962   -0.3045    1.7194 H   0  0  0  0  0  0  0  0  0  0  0  0
    0.7095   -1.6766    0.7790 H   0  0  0  0  0  0  0  0  0  0  0  0
    0.1474   -0.0698    1.2524 H   0  0  0  0  0  0  0  0  0  0  0  0
   -0.5686    0.3714   -1.1514 H   0  0  0  0  0  0  0  0  0  0  0  0
    0.0568   -1.2329   -1.6043 H   0  0  0  0  0  0  0  0  0  0  0  0
   -2.1642   -1.4363   -1.5040 H   0  0  0  0  0  0  0  0  0  0  0  0
   -3.5252   -1.3809    0.3884 H   0  0  0  0  0  0  0  0  0  0  0  0
   -2.3068   -0.4860    1.3186 H   0  0  0  0  0  0  0  0  0  0  0  0
   -4.2992    2.2894    0.4917 H   0  0  0  0  0  0  0  0  0  0  0  0
  1  2  1  0
  2  3  1  0
  3  4  2  0
  3  5  1  0
  5  6  1  0
  6  7  1  0
  7  8  1  0
  8  9  1  0
  9 10  2  0
  9 11  1  0
  1 12  1  0
  1 13  1  0
  1 14  1  0
  2 15  1  0
  5 16  1  0
  5 17  1  0
  6 18  1  0
  6 19  1  0
  7 20  1  0
  8 21  1  0
  8 22  1  0
 11 23  1  0
M  END
$$$$

     RDKit          3D

 23 22  0  0  0  0  0  0  0  0999 V2000
   -4.0132    0.3506   -0.5118 C   0  0  0  0  0  0  0  0  0  0  0  0
   -2.5584    0.3123   -0.2512 N   0  0  0  0  0  0  0  0  0  0  0  0
   -1.9078   -0.9499    0.0256 C   0  0  0  0  0  0  0  0  0  0  0  0
   -2.6010   -1.9734   -0.0253 O   0  0  0  0  0  0  0  0  0  0  0  0
   -0.5030   -0.9372    0.3505 C   0  0  0  0  0  0  0  0  0  0  0  0
    0.3208   -0.0115   -0.5794 C   0  0  0  0  0  0  0  0  0  0  0  0
    1.2243    0.6353    0.3130 N   0  0  0  0  0  0  0  0  0  0  0  0
    2.3268    0.0076    0.8695 C   0  0  0  0  0  0  0  0  0  0  0  0
    3.5198    0.1437   -0.0352 C   0  0  0  0  0  0  0  0  0  0  0  0
    3.8707   -0.7739   -0.8088 O   0  0  0  0  0  0  0  0  0  0  0  0
    4.2284    1.3468   -0.0224 O   0  0  0  0  0  0  0  0  0  0  0  0
   -4.4112   -0.6807   -0.4320 H   0  0  0  0  0  0  0  0  0  0  0  0
   -4.5104    0.9185    0.3332 H   0  0  0  0  0  0  0  0  0  0  0  0
   -4.2878    0.7645   -1.4724 H   0  0  0  0  0  0  0  0  0  0  0  0
   -2.0341    1.1785   -0.2884 H   0  0  0  0  0  0  0  0  0  0  0  0
   -0.1210   -1.9942    0.0234 H   0  0  0  0  0  0  0  0  0  0  0  0
   -0.3179   -0.8325    1.4114 H   0  0  0  0  0  0  0  0  0  0  0  0
    0.9396   -0.5917   -1.3170 H   0  0  0  0  0  0  0  0  0  0  0  0
   -0.2794    0.6973   -1.1475 H   0  0  0  0  0  0  0  0  0  0  0  0
    1.4951    1.5654   -0.0990 H   0  0  0  0  0  0  0  0  0  0  0  0
    2.5918    0.3380    1.8931 H   0  0  0  0  0  0  0  0  0  0  0  0
    2.1217   -1.1401    0.8721 H   0  0  0  0  0  0  0  0  0  0  0  0
    4.9062    1.6267   -0.6886 H   0  0  0  0  0  0  0  0  0  0  0  0
  1  2  1  0
  2  3  1  0
  3  4  2  0
  3  5  1  0
  5  6  1  0
  6  7  1  0
  7  8  1  0
  8  9  1  0
  9 10  2  0
  9 11  1  0
  1 12  1  0
  1 13  1  0
  1 14  1  0
  2 15  1  0
  5 16  1  0
  5 17  1  0
  6 18  1  0
  6 19  1  0
  7 20  1  0
  8 21  1  0
  8 22  1  0
 11 23  1  0
M  END
$$$$

     RDKit          3D

 23 22  0  0  0  0  0  0  0  0999 V2000
    3.6050   -0.4494    1.7797 C   0  0  0  0  0  0  0  0  0  0  0  0
    2.7799    0.5890    1.1868 N   0  0  0  0  0  0  0  0  0  0  0  0
    1.6399    0.2338    0.4188 C   0  0  0  0  0  0  0  0  0  0  0  0
    1.4092   -1.0153    0.2959 O   0  0  0  0  0  0  0  0  0  0  0  0
    0.7409    1.2494   -0.2224 C   0  0  0  0  0  0  0  0  0  0  0  0
   -0.3537    0.4940   -0.9547 C   0  0  0  0  0  0  0  0  0  0  0  0
   -1.0832   -0.3082   -0.0000 N   0  0  0  0  0  0  0  0  0  0  0  0
   -2.1510   -1.0783   -0.5553 C   0  0  0  0  0  0  0  0  0  0  0  0
   -3.2816   -0.2492   -1.0251 C   0  0  0  0  0  0  0  0  0  0  0  0
   -3.2980    1.0038   -0.9297 O   0  0  0  0  0  0  0  0  0  0  0  0
   -4.3692   -0.8866   -1.5954 O   0  0  0  0  0  0  0  0  0  0  0  0
    4.6873   -0.2113    1.7640 H   0  0  0  0  0  0  0  0  0  0  0  0
    3.3010   -0.6313    2.8273 H   0  0  0  0  0  0  0  0  0  0  0  0
    3.4694   -1.4262    1.2417 H   0  0  0  0  0  0  0  0  0  0  0  0
    3.0023    1.5982    1.3092 H   0  0  0  0  0  0  0  0  0  0  0  0
    0.2885    1.9092    0.5184 H   0  0  0  0  0  0  0  0  0  0  0  0
    1.3247    1.7964   -1.0144 H   0  0  0  0  0  0  0  0  0  0  0  0
    0.0938   -0.1445   -1.7489 H   0  0  0  0  0  0  0  0  0  0  0  0
   -1.0503    1.2179   -1.4173 H   0  0  0  0  0  0  0  0  0  0  0  0
   -1.3943    0.2298    0.8203 H   0  0  0  0  0  0  0  0  0  0  0  0
   -2.5729   -1.7929    0.1949 H   0  0  0  0  0  0  0  0  0  0  0  0
   -1.7674   -1.7059   -1.4139 H   0  0  0  0  0  0  0  0  0  0  0  0
   -5.0203   -0.4223   -2.1829 H   0  0  0  0  0  0  0  0  0  0  0  0
  1  2  1  0
  2  3  1  0
  3  4  2  0
  3  5  1  0
  5  6  1  0
  6  7  1  0
  7  8  1  0
  8  9  1  0
  9 10  2  0
  9 11  1  0
  1 12  1  0
  1 13  1  0
  1 14  1  0
  2 15  1  0
  5 16  1  0
  5 17  1  0
  6 18  1  0
  6 19  1  0
  7 20  1  0
  8 21  1  0
  8 22  1  0
 11 23  1  0
M  END
$$$$

     RDKit          3D

 23 22  0  0  0  0  0  0  0  0999 V2000
   -3.8164    0.1919    0.6140 C   0  0  0  0  0  0  0  0  0  0  0  0
   -2.6545   -0.6015    0.2839 N   0  0  0  0  0  0  0  0  0  0  0  0
   -1.5402    0.0324   -0.2928 C   0  0  0  0  0  0  0  0  0  0  0  0
   -1.5252    1.2522   -0.5266 O   0  0  0  0  0  0  0  0  0  0  0  0
   -0.3166   -0.7745   -0.6477 C   0  0  0  0  0  0  0  0  0  0  0  0
    0.7511    0.1692   -1.1309 C   0  0  0  0  0  0  0  0  0  0  0  0
    1.0830    1.0861   -0.1002 N   0  0  0  0  0  0  0  0  0  0  0  0
    1.7918    0.4447    0.9582 C   0  0  0  0  0  0  0  0  0  0  0  0
    3.1391    0.0543    0.5290 C   0  0  0  0  0  0  0  0  0  0  0  0
    3.5266    0.3599   -0.6422 O   0  0  0  0  0  0  0  0  0  0  0  0
    4.0067   -0.6340    1.3402 O   0  0  0  0  0  0  0  0  0  0  0  0
   -4.6460   -0.1769   -0.0568 H   0  0  0  0  0  0  0  0  0  0  0  0
   -3.6212    1.2530    0.4870 H   0  0  0  0  0  0  0  0  0  0  0  0
   -4.1301    0.0269    1.6886 H   0  0  0  0  0  0  0  0  0  0  0  0
   -2.6008   -1.6263    0.4560 H   0  0  0  0  0  0  0  0  0  0  0  0
   -0.0646   -1.3334    0.2687 H   0  0  0  0  0  0  0  0  0  0  0  0
   -0.5742   -1.5525   -1.4029 H   0  0  0  0  0  0  0  0  0  0  0  0
    0.2703    0.7625   -1.9515 H   0  0  0  0  0  0  0  0  0  0  0  0
    1.5947   -0.3904   -1.5839 H   0  0  0  0  0  0  0  0  0  0  0  0
    1.5015    1.9826   -0.4063 H   0  0  0  0  0  0  0  0  0  0  0  0
    1.8515    1.2022    1.7927 H   0  0  0  0  0  0  0  0  0  0  0  0
    1.2845   -0.4429    1.3453 H   0  0  0  0  0  0  0  0  0  0  0  0
    4.6891   -1.2856    0.9472 H   0  0  0  0  0  0  0  0  0  0  0  0
  1  2  1  0
  2  3  1  0
  3  4  2  0
  3  5  1  0
  5  6  1  0
  6  7  1  0
  7  8  1  0
  8  9  1  0
  9 10  2  0
  9 11  1  0
  1 12  1  0
  1 13  1  0
  1 14  1  0
  2 15  1  0
  5 16  1  0
  5 17  1  0
  6 18  1  0
  6 19  1  0
  7 20  1  0
  8 21  1  0
  8 22  1  0
 11 23  1  0
M  END
$$$$

     RDKit          3D

 23 22  0  0  0  0  0  0  0  0999 V2000
   -4.0809    0.3193   -0.0356 C   0  0  0  0  0  0  0  0  0  0  0  0
   -2.9541   -0.6399    0.0454 N   0  0  0  0  0  0  0  0  0  0  0  0
   -1.6216   -0.1955    0.0985 C   0  0  0  0  0  0  0  0  0  0  0  0
   -1.4435    1.0368    0.0519 O   0  0  0  0  0  0  0  0  0  0  0  0
   -0.4997   -1.1716    0.1947 C   0  0  0  0  0  0  0  0  0  0  0  0
    0.8084   -0.5816   -0.1717 C   0  0  0  0  0  0  0  0  0  0  0  0
    1.2340    0.5354    0.7403 N   0  0  0  0  0  0  0  0  0  0  0  0
    2.1268    1.3671   -0.0949 C   0  0  0  0  0  0  0  0  0  0  0  0
    3.4360    0.8047   -0.3808 C   0  0  0  0  0  0  0  0  0  0  0  0
    4.5383    1.3955   -0.1385 O   0  0  0  0  0  0  0  0  0  0  0  0
    3.6005   -0.5107   -0.9695 O   0  0  0  0  0  0  0  0  0  0  0  0
   -4.7375   -0.1225   -0.8583 H   0  0  0  0  0  0  0  0  0  0  0  0
   -3.7628    1.3175   -0.2719 H   0  0  0  0  0  0  0  0  0  0  0  0
   -4.7418    0.2455    0.8812 H   0  0  0  0  0  0  0  0  0  0  0  0
   -3.2093   -1.6402    0.0173 H   0  0  0  0  0  0  0  0  0  0  0  0
   -0.4554   -1.6305    1.2123 H   0  0  0  0  0  0  0  0  0  0  0  0
   -0.7139   -1.9788   -0.5864 H   0  0  0  0  0  0  0  0  0  0  0  0
    1.5831   -1.3898    0.0246 H   0  0  0  0  0  0  0  0  0  0  0  0
    0.8394   -0.2244   -1.2193 H   0  0  0  0  0  0  0  0  0  0  0  0
    1.8336    0.1533    1.5169 H   0  0  0  0  0  0  0  0  0  0  0  0
    1.4819    1.6413   -0.9595 H   0  0  0  0  0  0  0  0  0  0  0  0
    2.3322    2.2877    0.5165 H   0  0  0  0  0  0  0  0  0  0  0  0
    4.4064   -1.0187   -0.6044 H   0  0  0  0  0  0  0  0  0  0  0  0
  1  2  1  0
  2  3  1  0
  3  4  2  0
  3  5  1  0
  5  6  1  0
  6  7  1  0
  7  8  1  0
  8  9  1  0
  9 10  2  0
  9 11  1  0
  1 12  1  0
  1 13  1  0
  1 14  1  0
  2 15  1  0
  5 16  1  0
  5 17  1  0
  6 18  1  0
  6 19  1  0
  7 20  1  0
  8 21  1  0
  8 22  1  0
 11 23  1  0
M  END
$$$$

     RDKit          3D

 23 22  0  0  0  0  0  0  0  0999 V2000
    4.5233   -0.1338    0.4225 C   0  0  0  0  0  0  0  0  0  0  0  0
    3.2143   -0.6881    0.7526 N   0  0  0  0  0  0  0  0  0  0  0  0
    2.0044   -0.0642    0.3792 C   0  0  0  0  0  0  0  0  0  0  0  0
    2.0402    1.0024   -0.2576 O   0  0  0  0  0  0  0  0  0  0  0  0
    0.7090   -0.6620    0.7352 C   0  0  0  0  0  0  0  0  0  0  0  0
   -0.3886    0.1989    0.2202 C   0  0  0  0  0  0  0  0  0  0  0  0
   -1.7119   -0.2991    0.5167 N   0  0  0  0  0  0  0  0  0  0  0  0
   -2.6577    0.6445   -0.0476 C   0  0  0  0  0  0  0  0  0  0  0  0
   -4.0491    0.2666    0.1772 C   0  0  0  0  0  0  0  0  0  0  0  0
   -4.3300   -0.7749    0.7991 O   0  0  0  0  0  0  0  0  0  0  0  0
   -5.0697    1.0539   -0.2938 O   0  0  0  0  0  0  0  0  0  0  0  0
    4.8492    0.4699    1.3055 H   0  0  0  0  0  0  0  0  0  0  0  0
    5.2054   -0.9775    0.2259 H   0  0  0  0  0  0  0  0  0  0  0  0
    4.4532    0.5602   -0.4267 H   0  0  0  0  0  0  0  0  0  0  0  0
    3.1609   -1.5936    1.2931 H   0  0  0  0  0  0  0  0  0  0  0  0
    0.6201   -1.6794    0.2803 H   0  0  0  0  0  0  0  0  0  0  0  0
    0.6150   -0.8157    1.8512 H   0  0  0  0  0  0  0  0  0  0  0  0
   -0.3042    0.2378   -0.8885 H   0  0  0  0  0  0  0  0  0  0  0  0
   -0.2553    1.2472    0.5671 H   0  0  0  0  0  0  0  0  0  0  0  0
   -1.7885   -1.2493    0.0775 H   0  0  0  0  0  0  0  0  0  0  0  0
   -2.3898    1.6399    0.3578 H   0  0  0  0  0  0  0  0  0  0  0  0
   -2.4100    0.7001   -1.1447 H   0  0  0  0  0  0  0  0  0  0  0  0
   -6.0402    0.9162   -0.0761 H   0  0  0  0  0  0  0  0  0  0  0  0
  1  2  1  0
  2  3  1  0
  3  4  2  0
  3  5  1  0
  5  6  1  0
  6  7  1  0
  7  8  1  0
  8  9  1  0
  9 10  2  0
  9 11  1  0
  1 12  1  0
  1 13  1  0
  1 14  1  0
  2 15  1  0
  5 16  1  0
  5 17  1  0
  6 18  1  0
  6 19  1  0
  7 20  1  0
  8 21  1  0
  8 22  1  0
 11 23  1  0
M  END
$$$$

     RDKit          3D

 23 22  0  0  0  0  0  0  0  0999 V2000
    4.1088   -0.8507   -0.6305 C   0  0  0  0  0  0  0  0  0  0  0  0
    3.0198    0.0796   -0.9324 N   0  0  0  0  0  0  0  0  0  0  0  0
    1.7408    0.0039   -0.3485 C   0  0  0  0  0  0  0  0  0  0  0  0
    1.5308   -0.9221    0.4796 O   0  0  0  0  0  0  0  0  0  0  0  0
    0.6780    1.0002   -0.7107 C   0  0  0  0  0  0  0  0  0  0  0  0
   -0.5823    0.7733    0.0486 C   0  0  0  0  0  0  0  0  0  0  0  0
   -1.1562   -0.5187   -0.1837 N   0  0  0  0  0  0  0  0  0  0  0  0
   -2.3546   -0.7661    0.5405 C   0  0  0  0  0  0  0  0  0  0  0  0
   -3.5276    0.0237    0.1285 C   0  0  0  0  0  0  0  0  0  0  0  0
   -3.3965    0.8309   -0.8262 O   0  0  0  0  0  0  0  0  0  0  0  0
   -4.7645   -0.0683    0.7289 O   0  0  0  0  0  0  0  0  0  0  0  0
    3.6563   -1.8051   -0.2588 H   0  0  0  0  0  0  0  0  0  0  0  0
    4.7121   -1.0906   -1.5120 H   0  0  0  0  0  0  0  0  0  0  0  0
    4.7075   -0.4084    0.1800 H   0  0  0  0  0  0  0  0  0  0  0  0
    3.2175    0.8431   -1.6248 H   0  0  0  0  0  0  0  0  0  0  0  0
    1.0304    2.0413   -0.4469 H   0  0  0  0  0  0  0  0  0  0  0  0
    0.5012    1.0034   -1.7889 H   0  0  0  0  0  0  0  0  0  0  0  0
   -1.2972    1.5665   -0.2335 H   0  0  0  0  0  0  0  0  0  0  0  0
   -0.4173    0.8845    1.1466 H   0  0  0  0  0  0  0  0  0  0  0  0
   -1.1546   -0.8366   -1.1597 H   0  0  0  0  0  0  0  0  0  0  0  0
   -2.6063   -1.8522    0.4262 H   0  0  0  0  0  0  0  0  0  0  0  0
   -2.1877   -0.5986    1.6088 H   0  0  0  0  0  0  0  0  0  0  0  0
   -5.4584    0.6669    0.7204 H   0  0  0  0  0  0  0  0  0  0  0  0
  1  2  1  0
  2  3  1  0
  3  4  2  0
  3  5  1  0
  5  6  1  0
  6  7  1  0
  7  8  1  0
  8  9  1  0
  9 10  2  0
  9 11  1  0
  1 12  1  0
  1 13  1  0
  1 14  1  0
  2 15  1  0
  5 16  1  0
  5 17  1  0
  6 18  1  0
  6 19  1  0
  7 20  1  0
  8 21  1  0
  8 22  1  0
 11 23  1  0
M  END
$$$$

     RDKit          3D

 23 22  0  0  0  0  0  0  0  0999 V2000
    4.4912   -0.1401    0.9130 C   0  0  0  0  0  0  0  0  0  0  0  0
    3.1125    0.2900    1.1573 N   0  0  0  0  0  0  0  0  0  0  0  0
    2.0288   -0.1677    0.3738 C   0  0  0  0  0  0  0  0  0  0  0  0
    2.2684   -0.9700   -0.5603 O   0  0  0  0  0  0  0  0  0  0  0  0
    0.6459    0.2642    0.6194 C   0  0  0  0  0  0  0  0  0  0  0  0
   -0.3310   -0.3466   -0.3680 C   0  0  0  0  0  0  0  0  0  0  0  0
   -1.6507    0.1576   -0.0038 N   0  0  0  0  0  0  0  0  0  0  0  0
   -2.6751   -0.3353   -0.8900 C   0  0  0  0  0  0  0  0  0  0  0  0
   -3.9775    0.1754   -0.4345 C   0  0  0  0  0  0  0  0  0  0  0  0
   -4.1097    0.9090    0.5696 O   0  0  0  0  0  0  0  0  0  0  0  0
   -5.1248   -0.1639   -1.1416 O   0  0  0  0  0  0  0  0  0  0  0  0
    5.1239    0.7460    0.9584 H   0  0  0  0  0  0  0  0  0  0  0  0
    4.8427   -0.8364    1.7106 H   0  0  0  0  0  0  0  0  0  0  0  0
    4.5887   -0.5705   -0.1083 H   0  0  0  0  0  0  0  0  0  0  0  0
    2.8976    0.9568    1.9292 H   0  0  0  0  0  0  0  0  0  0  0  0
    0.6124    1.3655    0.4158 H   0  0  0  0  0  0  0  0  0  0  0  0
    0.3015    0.0027    1.6296 H   0  0  0  0  0  0  0  0  0  0  0  0
   -0.0997   -0.1300   -1.4158 H   0  0  0  0  0  0  0  0  0  0  0  0
   -0.3757   -1.4580   -0.2333 H   0  0  0  0  0  0  0  0  0  0  0  0
   -1.5881    1.2013    0.0430 H   0  0  0  0  0  0  0  0  0  0  0  0
   -2.4600   -0.0624   -1.9504 H   0  0  0  0  0  0  0  0  0  0  0  0
   -2.6812   -1.4387   -0.7917 H   0  0  0  0  0  0  0  0  0  0  0  0
   -5.8401    0.5509   -1.3310 H   0  0  0  0  0  0  0  0  0  0  0  0
  1  2  1  0
  2  3  1  0
  3  4  2  0
  3  5  1  0
  5  6  1  0
  6  7  1  0
  7  8  1  0
  8  9  1  0
  9 10  2  0
  9 11  1  0
  1 12  1  0
  1 13  1  0
  1 14  1  0
  2 15  1  0
  5 16  1  0
  5 17  1  0
  6 18  1  0
  6 19  1  0
  7 20  1  0
  8 21  1  0
  8 22  1  0
 11 23  1  0
M  END
$$$$
