
     RDKit          3D

 18 19  0  0  0  0  0  0  0  0999 V2000
    3.1813   -0.2720    0.0910 C   0  0  0  0  0  0  0  0  0  0  0  0
    1.7981    0.2653    0.0121 C   0  0  0  0  0  0  0  0  0  0  0  0
    1.4095    1.5483   -0.1128 N   0  0  0  0  0  0  0  0  0  0  0  0
    0.0878    1.6252   -0.1485 N   0  0  0  0  0  0  0  0  0  0  0  0
   -0.4527    0.3951   -0.0486 C   0  0  0  0  0  0  0  0  0  0  0  0
   -1.7574   -0.0883   -0.0330 C   0  0  0  0  0  0  0  0  0  0  0  0
   -2.8132    0.8456   -0.1408 N   0  0  0  0  0  0  0  0  0  0  0  0
   -1.9493   -1.4141    0.0832 N   0  0  0  0  0  4  0  0  0  0  0  0
   -3.2508   -1.9012    0.0992 O   0  0  0  0  0  1  0  0  0  0  0  0
   -0.9001   -2.2271    0.1798 N   0  0  0  0  0  0  0  0  0  0  0  0
    0.3493   -1.7911    0.1674 N   0  0  0  0  0  0  0  0  0  0  0  0
    0.6310   -0.4701    0.0535 C   0  0  0  0  0  0  0  0  0  0  0  0
    3.1537   -1.3695   -0.1160 H   0  0  0  0  0  0  0  0  0  0  0  0
    3.5939   -0.1686    1.1313 H   0  0  0  0  0  0  0  0  0  0  0  0
    3.8651    0.1701   -0.6420 H   0  0  0  0  0  0  0  0  0  0  0  0
   -0.5264    2.4792   -0.2394 H   0  0  0  0  0  0  0  0  0  0  0  0
   -2.8828    1.5014   -0.9336 H   0  0  0  0  0  0  0  0  0  0  0  0
   -3.5370    0.8717    0.5972 H   0  0  0  0  0  0  0  0  0  0  0  0
  1  2  1  0
  2  3  2  0
  3  4  1  0
  4  5  1  0
  5  6  2  0
  6  7  1  0
  6  8  1  0
  8  9  1  0
  8 10  2  0
 10 11  1  0
 11 12  2  0
 12  2  1  0
 12  5  1  0
  1 13  1  0
  1 14  1  0
  1 15  1  0
  4 16  1  0
  7 17  1  0
  7 18  1  0
M  CHG  2   8   1   9  -1
M  END
$$$$

     RDKit          3D

 18 19  0  0  0  0  0  0  0  0999 V2000
    3.2040   -0.1456   -0.1205 C   0  0  0  0  0  0  0  0  0  0  0  0
    1.7926    0.2863    0.0554 C   0  0  0  0  0  0  0  0  0  0  0  0
    1.3760    1.5008    0.4737 N   0  0  0  0  0  0  0  0  0  0  0  0
    0.0584    1.5451    0.5169 N   0  0  0  0  0  0  0  0  0  0  0  0
   -0.4687    0.3626    0.1297 C   0  0  0  0  0  0  0  0  0  0  0  0
   -1.7493   -0.1224   -0.0063 C   0  0  0  0  0  0  0  0  0  0  0  0
   -2.8860    0.6641    0.2832 N   0  0  0  0  0  0  0  0  0  0  0  0
   -1.9162   -1.3800   -0.4266 N   0  0  0  0  0  4  0  0  0  0  0  0
   -3.1951   -1.9280   -0.5838 O   0  0  0  0  0  1  0  0  0  0  0  0
   -0.8536   -2.1265   -0.7010 N   0  0  0  0  0  0  0  0  0  0  0  0
    0.3849   -1.6866   -0.5794 N   0  0  0  0  0  0  0  0  0  0  0  0
    0.6391   -0.4373   -0.1638 C   0  0  0  0  0  0  0  0  0  0  0  0
    3.6370   -0.5003    0.8596 H   0  0  0  0  0  0  0  0  0  0  0  0
    3.8540    0.6819   -0.4973 H   0  0  0  0  0  0  0  0  0  0  0  0
    3.2609   -1.0304   -0.7914 H   0  0  0  0  0  0  0  0  0  0  0  0
   -0.4971    2.3750    0.8086 H   0  0  0  0  0  0  0  0  0  0  0  0
   -3.3272    1.2030   -0.4888 H   0  0  0  0  0  0  0  0  0  0  0  0
   -3.3139    0.7383    1.2320 H   0  0  0  0  0  0  0  0  0  0  0  0
  1  2  1  0
  2  3  2  0
  3  4  1  0
  4  5  1  0
  5  6  2  0
  6  7  1  0
  6  8  1  0
  8  9  1  0
  8 10  2  0
 10 11  1  0
 11 12  2  0
 12  2  1  0
 12  5  1  0
  1 13  1  0
  1 14  1  0
  1 15  1  0
  4 16  1  0
  7 17  1  0
  7 18  1  0
M  CHG  2   8   1   9  -1
M  END
$$$$

     RDKit          3D

 18 19  0  0  0  0  0  0  0  0999 V2000
    3.1602    0.2626    0.1568 C   0  0  0  0  0  0  0  0  0  0  0  0
    1.7993   -0.2843   -0.0143 C   0  0  0  0  0  0  0  0  0  0  0  0
    1.3968   -1.5266   -0.3244 N   0  0  0  0  0  0  0  0  0  0  0  0
    0.0737   -1.5960   -0.3797 N   0  0  0  0  0  0  0  0  0  0  0  0
   -0.4314   -0.3865   -0.1040 C   0  0  0  0  0  0  0  0  0  0  0  0
   -1.7395    0.0817   -0.0297 C   0  0  0  0  0  0  0  0  0  0  0  0
   -2.8233   -0.8017   -0.2735 N   0  0  0  0  0  0  0  0  0  0  0  0
   -1.9174    1.3788    0.2766 N   0  0  0  0  0  4  0  0  0  0  0  0
   -3.2004    1.8915    0.3623 O   0  0  0  0  0  1  0  0  0  0  0  0
   -0.8802    2.1724    0.4975 N   0  0  0  0  0  0  0  0  0  0  0  0
    0.3711    1.7410    0.4304 N   0  0  0  0  0  0  0  0  0  0  0  0
    0.6440    0.4640    0.1317 C   0  0  0  0  0  0  0  0  0  0  0  0
    3.2281    1.1990   -0.4158 H   0  0  0  0  0  0  0  0  0  0  0  0
    3.3863    0.4798    1.2281 H   0  0  0  0  0  0  0  0  0  0  0  0
    3.9433   -0.4109   -0.2061 H   0  0  0  0  0  0  0  0  0  0  0  0
   -0.5287   -2.4191   -0.5949 H   0  0  0  0  0  0  0  0  0  0  0  0
   -2.7656   -1.8258   -0.0915 H   0  0  0  0  0  0  0  0  0  0  0  0
   -3.7162   -0.4200   -0.6495 H   0  0  0  0  0  0  0  0  0  0  0  0
  1  2  1  0
  2  3  2  0
  3  4  1  0
  4  5  1  0
  5  6  2  0
  6  7  1  0
  6  8  1  0
  8  9  1  0
  8 10  2  0
 10 11  1  0
 11 12  2  0
 12  2  1  0
 12  5  1  0
  1 13  1  0
  1 14  1  0
  1 15  1  0
  4 16  1  0
  7 17  1  0
  7 18  1  0
M  CHG  2   8   1   9  -1
M  END
$$$$

     RDKit          3D

 18 19  0  0  0  0  0  0  0  0999 V2000
    3.2242    0.0085    0.0124 C   0  0  0  0  0  0  0  0  0  0  0  0
    1.7808   -0.3974   -0.0546 C   0  0  0  0  0  0  0  0  0  0  0  0
    1.2778   -1.6338   -0.2400 N   0  0  0  0  0  0  0  0  0  0  0  0
   -0.0499   -1.6022   -0.2417 N   0  0  0  0  0  0  0  0  0  0  0  0
   -0.4833   -0.3513   -0.0586 C   0  0  0  0  0  0  0  0  0  0  0  0
   -1.7472    0.1954    0.0163 C   0  0  0  0  0  0  0  0  0  0  0  0
   -2.9450   -0.5424   -0.0987 N   0  0  0  0  0  0  0  0  0  0  0  0
   -1.8031    1.5190    0.2119 N   0  0  0  0  0  4  0  0  0  0  0  0
   -3.0135    2.1475    0.2991 O   0  0  0  0  0  1  0  0  0  0  0  0
   -0.7009    2.2577    0.3265 N   0  0  0  0  0  0  0  0  0  0  0  0
    0.5129    1.7274    0.2538 N   0  0  0  0  0  0  0  0  0  0  0  0
    0.6670    0.4151    0.0603 C   0  0  0  0  0  0  0  0  0  0  0  0
    3.8326   -0.7957    0.5163 H   0  0  0  0  0  0  0  0  0  0  0  0
    3.3495    0.9014    0.6764 H   0  0  0  0  0  0  0  0  0  0  0  0
    3.6371    0.2212   -0.9862 H   0  0  0  0  0  0  0  0  0  0  0  0
   -0.7065   -2.4166   -0.3653 H   0  0  0  0  0  0  0  0  0  0  0  0
   -3.3943   -1.0585    0.6846 H   0  0  0  0  0  0  0  0  0  0  0  0
   -3.4381   -0.5952   -1.0126 H   0  0  0  0  0  0  0  0  0  0  0  0
  1  2  1  0
  2  3  2  0
  3  4  1  0
  4  5  1  0
  5  6  2  0
  6  7  1  0
  6  8  1  0
  8  9  1  0
  8 10  2  0
 10 11  1  0
 11 12  2  0
 12  2  1  0
 12  5  1  0
  1 13  1  0
  1 14  1  0
  1 15  1  0
  4 16  1  0
  7 17  1  0
  7 18  1  0
M  CHG  2   8   1   9  -1
M  END
$$$$

     RDKit          3D

 18 19  0  0  0  0  0  0  0  0999 V2000
    3.1322    0.0165    0.0741 C   0  0  0  0  0  0  0  0  0  0  0  0
    1.7223   -0.3228   -0.1573 C   0  0  0  0  0  0  0  0  0  0  0  0
    1.2914   -1.5289   -0.5703 N   0  0  0  0  0  0  0  0  0  0  0  0
   -0.0041   -1.5459   -0.6913 N   0  0  0  0  0  0  0  0  0  0  0  0
   -0.4636   -0.3280   -0.3544 C   0  0  0  0  0  0  0  0  0  0  0  0
   -1.7305    0.2170   -0.2985 C   0  0  0  0  0  0  0  0  0  0  0  0
   -2.8441   -0.5802   -0.6455 N   0  0  0  0  0  0  0  0  0  0  0  0
   -1.8425    1.4921    0.0873 N   0  0  0  0  0  4  0  0  0  0  0  0
   -3.0805    2.0838    0.1603 O   0  0  0  0  0  1  0  0  0  0  0  0
   -0.7725    2.2303    0.4121 N   0  0  0  0  0  0  0  0  0  0  0  0
    0.4615    1.7290    0.3669 N   0  0  0  0  0  0  0  0  0  0  0  0
    0.6107    0.4531   -0.0159 C   0  0  0  0  0  0  0  0  0  0  0  0
    3.3765    1.0807   -0.1414 H   0  0  0  0  0  0  0  0  0  0  0  0
    3.4908   -0.2780    1.0979 H   0  0  0  0  0  0  0  0  0  0  0  0
    3.7617   -0.5791   -0.6283 H   0  0  0  0  0  0  0  0  0  0  0  0
   -0.5545   -2.3682   -0.9958 H   0  0  0  0  0  0  0  0  0  0  0  0
   -3.7347   -0.1610   -1.0048 H   0  0  0  0  0  0  0  0  0  0  0  0
   -2.8202   -1.6105   -0.5569 H   0  0  0  0  0  0  0  0  0  0  0  0
  1  2  1  0
  2  3  2  0
  3  4  1  0
  4  5  1  0
  5  6  2  0
  6  7  1  0
  6  8  1  0
  8  9  1  0
  8 10  2  0
 10 11  1  0
 11 12  2  0
 12  2  1  0
 12  5  1  0
  1 13  1  0
  1 14  1  0
  1 15  1  0
  4 16  1  0
  7 17  1  0
  7 18  1  0
M  CHG  2   8   1   9  -1
M  END
$$$$

     RDKit          3D

 18 19  0  0  0  0  0  0  0  0999 V2000
    3.1839    0.0733   -0.3041 C   0  0  0  0  0  0  0  0  0  0  0  0
    1.7704   -0.3187   -0.1612 C   0  0  0  0  0  0  0  0  0  0  0  0
    1.3394   -1.5842   -0.0743 N   0  0  0  0  0  0  0  0  0  0  0  0
    0.0204   -1.6171    0.0465 N   0  0  0  0  0  0  0  0  0  0  0  0
   -0.4875   -0.3716    0.0454 C   0  0  0  0  0  0  0  0  0  0  0  0
   -1.7430    0.1759    0.1385 C   0  0  0  0  0  0  0  0  0  0  0  0
   -2.8770   -0.6513    0.2726 N   0  0  0  0  0  0  0  0  0  0  0  0
   -1.8681    1.5057    0.0996 N   0  0  0  0  0  4  0  0  0  0  0  0
   -3.1083    2.1361    0.1882 O   0  0  0  0  0  1  0  0  0  0  0  0
   -0.7838    2.2561   -0.0270 N   0  0  0  0  0  0  0  0  0  0  0  0
    0.4437    1.7723   -0.1199 N   0  0  0  0  0  0  0  0  0  0  0  0
    0.6345    0.4595   -0.0877 C   0  0  0  0  0  0  0  0  0  0  0  0
    3.7737   -0.7047   -0.8372 H   0  0  0  0  0  0  0  0  0  0  0  0
    3.3164    1.0797   -0.7552 H   0  0  0  0  0  0  0  0  0  0  0  0
    3.5996    0.1615    0.7362 H   0  0  0  0  0  0  0  0  0  0  0  0
   -0.6084   -2.4586    0.1352 H   0  0  0  0  0  0  0  0  0  0  0  0
   -3.2662   -0.7747    1.2525 H   0  0  0  0  0  0  0  0  0  0  0  0
   -3.3396   -1.1393   -0.5482 H   0  0  0  0  0  0  0  0  0  0  0  0
  1  2  1  0
  2  3  2  0
  3  4  1  0
  4  5  1  0
  5  6  2  0
  6  7  1  0
  6  8  1  0
  8  9  1  0
  8 10  2  0
 10 11  1  0
 11 12  2  0
 12  2  1  0
 12  5  1  0
  1 13  1  0
  1 14  1  0
  1 15  1  0
  4 16  1  0
  7 17  1  0
  7 18  1  0
M  CHG  2   8   1   9  -1
M  END
$$$$

     RDKit          3D

 18 19  0  0  0  0  0  0  0  0999 V2000
    3.1891    0.0808    0.3472 C   0  0  0  0  0  0  0  0  0  0  0  0
    1.7871    0.3072   -0.1159 C   0  0  0  0  0  0  0  0  0  0  0  0
    1.3775    1.1030   -1.1193 N   0  0  0  0  0  0  0  0  0  0  0  0
    0.0489    1.0526   -1.2429 N   0  0  0  0  0  0  0  0  0  0  0  0
   -0.4554    0.2217   -0.3239 C   0  0  0  0  0  0  0  0  0  0  0  0
   -1.7420   -0.1772   -0.0271 C   0  0  0  0  0  0  0  0  0  0  0  0
   -2.8798    0.2891   -0.7392 N   0  0  0  0  0  0  0  0  0  0  0  0
   -1.8879   -1.0458    0.9863 N   0  0  0  0  0  4  0  0  0  0  0  0
   -3.0991   -1.5153    1.3776 O   0  0  0  0  0  1  0  0  0  0  0  0
   -0.8222   -1.4967    1.6699 N   0  0  0  0  0  0  0  0  0  0  0  0
    0.4077   -1.1176    1.3888 N   0  0  0  0  0  0  0  0  0  0  0  0
    0.6276   -0.2561    0.3942 C   0  0  0  0  0  0  0  0  0  0  0  0
    3.7861   -0.4058   -0.4691 H   0  0  0  0  0  0  0  0  0  0  0  0
    3.1846   -0.6096    1.1869 H   0  0  0  0  0  0  0  0  0  0  0  0
    3.6640    1.0351    0.6654 H   0  0  0  0  0  0  0  0  0  0  0  0
   -0.5455    1.5665   -1.9365 H   0  0  0  0  0  0  0  0  0  0  0  0
   -3.7398   -0.2895   -0.8646 H   0  0  0  0  0  0  0  0  0  0  0  0
   -2.9011    1.2574   -1.1779 H   0  0  0  0  0  0  0  0  0  0  0  0
  1  2  1  0
  2  3  2  0
  3  4  1  0
  4  5  1  0
  5  6  2  0
  6  7  1  0
  6  8  1  0
  8  9  1  0
  8 10  2  0
 10 11  1  0
 11 12  2  0
 12  2  1  0
 12  5  1  0
  1 13  1  0
  1 14  1  0
  1 15  1  0
  4 16  1  0
  7 17  1  0
  7 18  1  0
M  CHG  2   8   1   9  -1
M  END
$$$$

     RDKit          3D

 18 19  0  0  0  0  0  0  0  0999 V2000
    3.1877    0.1010    0.0836 C   0  0  0  0  0  0  0  0  0  0  0  0
    1.7557    0.3970   -0.1562 C   0  0  0  0  0  0  0  0  0  0  0  0
    1.2322    1.4494   -0.8010 N   0  0  0  0  0  0  0  0  0  0  0  0
   -0.0863    1.3953   -0.8291 N   0  0  0  0  0  0  0  0  0  0  0  0
   -0.4808    0.2819   -0.1900 C   0  0  0  0  0  0  0  0  0  0  0  0
   -1.7344   -0.2564    0.0707 C   0  0  0  0  0  0  0  0  0  0  0  0
   -2.9168    0.3910   -0.3651 N   0  0  0  0  0  0  0  0  0  0  0  0
   -1.7357   -1.4204    0.7575 N   0  0  0  0  0  4  0  0  0  0  0  0
   -2.9996   -1.9507    1.0130 O   0  0  0  0  0  1  0  0  0  0  0  0
   -0.6358   -2.0239    1.1637 N   0  0  0  0  0  0  0  0  0  0  0  0
    0.5522   -1.5027    0.9101 N   0  0  0  0  0  0  0  0  0  0  0  0
    0.6585   -0.3635    0.2427 C   0  0  0  0  0  0  0  0  0  0  0  0
    3.7200    0.2341   -0.8974 H   0  0  0  0  0  0  0  0  0  0  0  0
    3.2995   -0.9247    0.4812 H   0  0  0  0  0  0  0  0  0  0  0  0
    3.6594    0.8272    0.7937 H   0  0  0  0  0  0  0  0  0  0  0  0
   -0.7686    2.0716   -1.2592 H   0  0  0  0  0  0  0  0  0  0  0  0
   -3.4620    0.0761   -1.1879 H   0  0  0  0  0  0  0  0  0  0  0  0
   -3.2450    1.2176    0.1700 H   0  0  0  0  0  0  0  0  0  0  0  0
  1  2  1  0
  2  3  2  0
  3  4  1  0
  4  5  1  0
  5  6  2  0
  6  7  1  0
  6  8  1  0
  8  9  1  0
  8 10  2  0
 10 11  1  0
 11 12  2  0
 12  2  1  0
 12  5  1  0
  1 13  1  0
  1 14  1  0
  1 15  1  0
  4 16  1  0
  7 17  1  0
  7 18  1  0
M  CHG  2   8   1   9  -1
M  END
$$$$
