
     RDKit          3D

 23 23  0  0  0  0  0  0  0  0999 V2000
    2.9804    1.1303   -0.4478 N   0  0  0  0  0  0  0  0  0  0  0  0
    2.7446    0.0116    0.3540 N   0  0  0  0  0  0  0  0  0  0  0  0
    1.4264   -0.9283   -0.1672 S   0  0  0  0  0  6  0  0  0  0  0  0
    1.6942   -2.3704    0.1551 O   0  0  0  0  0  0  0  0  0  0  0  0
    1.2331   -0.8547   -1.6753 O   0  0  0  0  0  0  0  0  0  0  0  0
   -0.1118   -0.3926    0.5872 C   0  0  0  0  0  0  0  0  0  0  0  0
   -0.3893    1.0281    0.2701 C   0  0  0  0  0  0  0  0  0  0  0  0
   -1.8514    1.3852    0.2324 C   0  0  0  0  0  0  0  0  0  0  0  0
   -2.6595    0.3592    0.7235 O   0  0  0  0  0  0  0  0  0  0  0  0
   -2.5017   -0.7222   -0.1175 C   0  0  0  0  0  0  0  0  0  0  0  0
   -1.1735   -1.3539    0.1607 C   0  0  0  0  0  0  0  0  0  0  0  0
    3.2151    1.9183    0.2237 H   0  0  0  0  0  0  0  0  0  0  0  0
    3.8626    0.9667   -0.9880 H   0  0  0  0  0  0  0  0  0  0  0  0
    3.5686   -0.5790    0.4912 H   0  0  0  0  0  0  0  0  0  0  0  0
   -0.0068   -0.4933    1.7003 H   0  0  0  0  0  0  0  0  0  0  0  0
    0.0854    1.7004    1.0270 H   0  0  0  0  0  0  0  0  0  0  0  0
    0.1177    1.2760   -0.6939 H   0  0  0  0  0  0  0  0  0  0  0  0
   -2.1253    1.4900   -0.8545 H   0  0  0  0  0  0  0  0  0  0  0  0
   -2.0790    2.3239    0.7736 H   0  0  0  0  0  0  0  0  0  0  0  0
   -2.5019   -0.3411   -1.1738 H   0  0  0  0  0  0  0  0  0  0  0  0
   -3.2987   -1.4842   -0.0056 H   0  0  0  0  0  0  0  0  0  0  0  0
   -0.8831   -1.9138   -0.7759 H   0  0  0  0  0  0  0  0  0  0  0  0
   -1.3463   -2.1561    0.9234 H   0  0  0  0  0  0  0  0  0  0  0  0
  1  2  1  0
  2  3  1  0
  3  4  2  0
  3  5  2  0
  3  6  1  0
  6  7  1  0
  7  8  1  0
  8  9  1  0
  9 10  1  0
 10 11  1  0
 11  6  1  0
  1 12  1  0
  1 13  1  0
  2 14  1  0
  6 15  1  0
  7 16  1  0
  7 17  1  0
  8 18  1  0
  8 19  1  0
 10 20  1  0
 10 21  1  0
 11 22  1  0
 11 23  1  0
M  END
$$$$

     RDKit          3D

 23 23  0  0  0  0  0  0  0  0999 V2000
    3.4736    0.4268    0.0790 N   0  0  0  0  0  0  0  0  0  0  0  0
    2.5650    0.1111    1.0455 N   0  0  0  0  0  0  0  0  0  0  0  0
    1.3814   -1.0184    0.6358 S   0  0  0  0  0  6  0  0  0  0  0  0
    0.8982   -1.6985    1.8904 O   0  0  0  0  0  0  0  0  0  0  0  0
    1.8977   -1.9917   -0.3579 O   0  0  0  0  0  0  0  0  0  0  0  0
   -0.0215   -0.1329   -0.0412 C   0  0  0  0  0  0  0  0  0  0  0  0
   -1.1421   -1.0224   -0.4106 C   0  0  0  0  0  0  0  0  0  0  0  0
   -2.4896   -0.6352    0.0485 C   0  0  0  0  0  0  0  0  0  0  0  0
   -2.7199    0.6471    0.3780 O   0  0  0  0  0  0  0  0  0  0  0  0
   -1.7159    1.5471    0.2672 C   0  0  0  0  0  0  0  0  0  0  0  0
   -0.4678    0.9442    0.9235 C   0  0  0  0  0  0  0  0  0  0  0  0
    3.5924    1.4481   -0.1044 H   0  0  0  0  0  0  0  0  0  0  0  0
    3.4560   -0.1519   -0.7780 H   0  0  0  0  0  0  0  0  0  0  0  0
    2.8963    0.1129    2.0173 H   0  0  0  0  0  0  0  0  0  0  0  0
    0.3712    0.4120   -0.9445 H   0  0  0  0  0  0  0  0  0  0  0  0
   -1.1355   -1.1594   -1.5325 H   0  0  0  0  0  0  0  0  0  0  0  0
   -0.8922   -2.0554   -0.0236 H   0  0  0  0  0  0  0  0  0  0  0  0
   -3.2369   -0.9322   -0.7473 H   0  0  0  0  0  0  0  0  0  0  0  0
   -2.7830   -1.2809    0.9296 H   0  0  0  0  0  0  0  0  0  0  0  0
   -2.0118    2.4936    0.7430 H   0  0  0  0  0  0  0  0  0  0  0  0
   -1.4630    1.7022   -0.8213 H   0  0  0  0  0  0  0  0  0  0  0  0
    0.3256    1.7220    1.0527 H   0  0  0  0  0  0  0  0  0  0  0  0
   -0.7781    0.5118    1.8770 H   0  0  0  0  0  0  0  0  0  0  0  0
  1  2  1  0
  2  3  1  0
  3  4  2  0
  3  5  2  0
  3  6  1  0
  6  7  1  0
  7  8  1  0
  8  9  1  0
  9 10  1  0
 10 11  1  0
 11  6  1  0
  1 12  1  0
  1 13  1  0
  2 14  1  0
  6 15  1  0
  7 16  1  0
  7 17  1  0
  8 18  1  0
  8 19  1  0
 10 20  1  0
 10 21  1  0
 11 22  1  0
 11 23  1  0
M  END
$$$$

     RDKit          3D

 23 23  0  0  0  0  0  0  0  0999 V2000
    2.9596   -0.3053    1.0420 N   0  0  0  0  0  0  0  0  0  0  0  0
    2.5131    0.2802   -0.1466 N   0  0  0  0  0  0  0  0  0  0  0  0
    1.3700   -0.6783   -0.9704 S   0  0  0  0  0  6  0  0  0  0  0  0
    1.4757   -0.3617   -2.4520 O   0  0  0  0  0  0  0  0  0  0  0  0
    1.6137   -2.1460   -0.8316 O   0  0  0  0  0  0  0  0  0  0  0  0
   -0.2923   -0.3304   -0.4892 C   0  0  0  0  0  0  0  0  0  0  0  0
   -0.6853    1.1026   -0.7980 C   0  0  0  0  0  0  0  0  0  0  0  0
   -2.1465    1.2504   -0.4370 C   0  0  0  0  0  0  0  0  0  0  0  0
   -2.4340    0.8608    0.8504 O   0  0  0  0  0  0  0  0  0  0  0  0
   -2.0634   -0.4267    1.1486 C   0  0  0  0  0  0  0  0  0  0  0  0
   -0.5414   -0.5445    0.9739 C   0  0  0  0  0  0  0  0  0  0  0  0
    3.0867   -1.3361    0.9629 H   0  0  0  0  0  0  0  0  0  0  0  0
    3.8966    0.1338    1.2579 H   0  0  0  0  0  0  0  0  0  0  0  0
    3.2911    0.5157   -0.7900 H   0  0  0  0  0  0  0  0  0  0  0  0
   -1.0031   -0.9731   -1.0464 H   0  0  0  0  0  0  0  0  0  0  0  0
   -0.0271    1.7757   -0.2430 H   0  0  0  0  0  0  0  0  0  0  0  0
   -0.5818    1.2596   -1.8883 H   0  0  0  0  0  0  0  0  0  0  0  0
   -2.4664    2.3242   -0.5279 H   0  0  0  0  0  0  0  0  0  0  0  0
   -2.7175    0.5983   -1.1477 H   0  0  0  0  0  0  0  0  0  0  0  0
   -2.3673   -0.6504    2.1751 H   0  0  0  0  0  0  0  0  0  0  0  0
   -2.5885   -1.1617    0.4839 H   0  0  0  0  0  0  0  0  0  0  0  0
   -0.1151    0.3249    1.5173 H   0  0  0  0  0  0  0  0  0  0  0  0
   -0.1768   -1.5120    1.3562 H   0  0  0  0  0  0  0  0  0  0  0  0
  1  2  1  0
  2  3  1  0
  3  4  2  0
  3  5  2  0
  3  6  1  0
  6  7  1  0
  7  8  1  0
  8  9  1  0
  9 10  1  0
 10 11  1  0
 11  6  1  0
  1 12  1  0
  1 13  1  0
  2 14  1  0
  6 15  1  0
  7 16  1  0
  7 17  1  0
  8 18  1  0
  8 19  1  0
 10 20  1  0
 10 21  1  0
 11 22  1  0
 11 23  1  0
M  END
$$$$

     RDKit          3D

 23 23  0  0  0  0  0  0  0  0999 V2000
    3.0556   -0.0997   -0.9439 N   0  0  0  0  0  0  0  0  0  0  0  0
    2.5620    1.0692   -0.3517 N   0  0  0  0  0  0  0  0  0  0  0  0
    1.3900    0.6170    0.8161 S   0  0  0  0  0  6  0  0  0  0  0  0
    1.7217   -0.6952    1.4823 O   0  0  0  0  0  0  0  0  0  0  0  0
    1.3146    1.6474    1.9216 O   0  0  0  0  0  0  0  0  0  0  0  0
   -0.2481    0.5313    0.0947 C   0  0  0  0  0  0  0  0  0  0  0  0
   -0.3249   -0.4591   -0.9984 C   0  0  0  0  0  0  0  0  0  0  0  0
   -1.6516   -1.1111   -1.1911 C   0  0  0  0  0  0  0  0  0  0  0  0
   -2.3721   -1.2854   -0.0180 O   0  0  0  0  0  0  0  0  0  0  0  0
   -2.5462   -0.0817    0.6695 C   0  0  0  0  0  0  0  0  0  0  0  0
   -1.2052    0.2900    1.2314 C   0  0  0  0  0  0  0  0  0  0  0  0
    2.8899   -0.9266   -0.3281 H   0  0  0  0  0  0  0  0  0  0  0  0
    4.0877   -0.0223   -1.0730 H   0  0  0  0  0  0  0  0  0  0  0  0
    3.3653    1.5528    0.1082 H   0  0  0  0  0  0  0  0  0  0  0  0
   -0.4606    1.5598   -0.2972 H   0  0  0  0  0  0  0  0  0  0  0  0
    0.5063   -1.2086   -0.8532 H   0  0  0  0  0  0  0  0  0  0  0  0
   -0.0613    0.0427   -1.9762 H   0  0  0  0  0  0  0  0  0  0  0  0
   -2.2918   -0.5702   -1.9328 H   0  0  0  0  0  0  0  0  0  0  0  0
   -1.4762   -2.1243   -1.6110 H   0  0  0  0  0  0  0  0  0  0  0  0
   -2.8801    0.7383    0.0073 H   0  0  0  0  0  0  0  0  0  0  0  0
   -3.2319   -0.2847    1.5061 H   0  0  0  0  0  0  0  0  0  0  0  0
   -1.3325    1.2584    1.7836 H   0  0  0  0  0  0  0  0  0  0  0  0
   -0.8106   -0.4380    1.9538 H   0  0  0  0  0  0  0  0  0  0  0  0
  1  2  1  0
  2  3  1  0
  3  4  2  0
  3  5  2  0
  3  6  1  0
  6  7  1  0
  7  8  1  0
  8  9  1  0
  9 10  1  0
 10 11  1  0
 11  6  1  0
  1 12  1  0
  1 13  1  0
  2 14  1  0
  6 15  1  0
  7 16  1  0
  7 17  1  0
  8 18  1  0
  8 19  1  0
 10 20  1  0
 10 21  1  0
 11 22  1  0
 11 23  1  0
M  END
$$$$

     RDKit          3D

 23 23  0  0  0  0  0  0  0  0999 V2000
    3.4330    0.2535    0.5883 N   0  0  0  0  0  0  0  0  0  0  0  0
    2.4764    0.8651   -0.2284 N   0  0  0  0  0  0  0  0  0  0  0  0
    1.3176   -0.2878   -0.7101 S   0  0  0  0  0  6  0  0  0  0  0  0
    0.7577    0.0394   -2.0663 O   0  0  0  0  0  0  0  0  0  0  0  0
    1.9355   -1.6708   -0.7417 O   0  0  0  0  0  0  0  0  0  0  0  0
   -0.0394   -0.3532    0.4674 C   0  0  0  0  0  0  0  0  0  0  0  0
   -1.0854   -1.3201    0.0029 C   0  0  0  0  0  0  0  0  0  0  0  0
   -2.4773   -0.9630    0.4466 C   0  0  0  0  0  0  0  0  0  0  0  0
   -2.5154   -0.0608    1.4833 O   0  0  0  0  0  0  0  0  0  0  0  0
   -1.9093    1.1493    1.2180 C   0  0  0  0  0  0  0  0  0  0  0  0
   -0.5656    1.0521    0.5903 C   0  0  0  0  0  0  0  0  0  0  0  0
    3.7848   -0.6363    0.1553 H   0  0  0  0  0  0  0  0  0  0  0  0
    4.2134    0.9126    0.8184 H   0  0  0  0  0  0  0  0  0  0  0  0
    2.9182    1.2633   -1.0720 H   0  0  0  0  0  0  0  0  0  0  0  0
    0.3767   -0.6355    1.4605 H   0  0  0  0  0  0  0  0  0  0  0  0
   -1.0765   -1.3641   -1.1133 H   0  0  0  0  0  0  0  0  0  0  0  0
   -0.7853   -2.3493    0.3577 H   0  0  0  0  0  0  0  0  0  0  0  0
   -2.9486   -1.9018    0.8068 H   0  0  0  0  0  0  0  0  0  0  0  0
   -3.1152   -0.6173   -0.4091 H   0  0  0  0  0  0  0  0  0  0  0  0
   -2.5497    1.8107    0.5706 H   0  0  0  0  0  0  0  0  0  0  0  0
   -1.8248    1.6924    2.1827 H   0  0  0  0  0  0  0  0  0  0  0  0
    0.1944    1.6195    1.1903 H   0  0  0  0  0  0  0  0  0  0  0  0
   -0.5152    1.5019   -0.4280 H   0  0  0  0  0  0  0  0  0  0  0  0
  1  2  1  0
  2  3  1  0
  3  4  2  0
  3  5  2  0
  3  6  1  0
  6  7  1  0
  7  8  1  0
  8  9  1  0
  9 10  1  0
 10 11  1  0
 11  6  1  0
  1 12  1  0
  1 13  1  0
  2 14  1  0
  6 15  1  0
  7 16  1  0
  7 17  1  0
  8 18  1  0
  8 19  1  0
 10 20  1  0
 10 21  1  0
 11 22  1  0
 11 23  1  0
M  END
$$$$

     RDKit          3D

 23 23  0  0  0  0  0  0  0  0999 V2000
    3.5256    0.1896    0.4579 N   0  0  0  0  0  0  0  0  0  0  0  0
    2.5832    0.6624   -0.4422 N   0  0  0  0  0  0  0  0  0  0  0  0
    1.3306   -0.4439   -0.7802 S   0  0  0  0  0  6  0  0  0  0  0  0
    1.8036   -1.8632   -0.7812 O   0  0  0  0  0  0  0  0  0  0  0  0
    0.8178   -0.1388   -2.1768 O   0  0  0  0  0  0  0  0  0  0  0  0
   -0.0439   -0.2727    0.3239 C   0  0  0  0  0  0  0  0  0  0  0  0
   -1.1662   -1.2189   -0.0364 C   0  0  0  0  0  0  0  0  0  0  0  0
   -2.4665   -0.8014    0.5982 C   0  0  0  0  0  0  0  0  0  0  0  0
   -2.9077    0.4026    0.1033 O   0  0  0  0  0  0  0  0  0  0  0  0
   -1.9212    1.1448   -0.5023 C   0  0  0  0  0  0  0  0  0  0  0  0
   -0.6113    1.1350    0.2297 C   0  0  0  0  0  0  0  0  0  0  0  0
    4.2097    0.9646    0.6202 H   0  0  0  0  0  0  0  0  0  0  0  0
    3.9918   -0.6804    0.1120 H   0  0  0  0  0  0  0  0  0  0  0  0
    3.0816    0.8815   -1.3395 H   0  0  0  0  0  0  0  0  0  0  0  0
    0.2722   -0.4441    1.3629 H   0  0  0  0  0  0  0  0  0  0  0  0
   -0.9338   -2.2358    0.3363 H   0  0  0  0  0  0  0  0  0  0  0  0
   -1.3310   -1.2433   -1.1382 H   0  0  0  0  0  0  0  0  0  0  0  0
   -3.1881   -1.6300    0.4365 H   0  0  0  0  0  0  0  0  0  0  0  0
   -2.2968   -0.7589    1.6990 H   0  0  0  0  0  0  0  0  0  0  0  0
   -1.8022    0.8078   -1.5463 H   0  0  0  0  0  0  0  0  0  0  0  0
   -2.2736    2.2068   -0.5176 H   0  0  0  0  0  0  0  0  0  0  0  0
    0.0951    1.7628   -0.3679 H   0  0  0  0  0  0  0  0  0  0  0  0
   -0.7689    1.5734    1.2391 H   0  0  0  0  0  0  0  0  0  0  0  0
  1  2  1  0
  2  3  1  0
  3  4  2  0
  3  5  2  0
  3  6  1  0
  6  7  1  0
  7  8  1  0
  8  9  1  0
  9 10  1  0
 10 11  1  0
 11  6  1  0
  1 12  1  0
  1 13  1  0
  2 14  1  0
  6 15  1  0
  7 16  1  0
  7 17  1  0
  8 18  1  0
  8 19  1  0
 10 20  1  0
 10 21  1  0
 11 22  1  0
 11 23  1  0
M  END
$$$$

     RDKit          3D

 23 23  0  0  0  0  0  0  0  0999 V2000
    3.4460   -0.2948   -0.9723 N   0  0  0  0  0  0  0  0  0  0  0  0
    2.4835   -0.9461   -0.2080 N   0  0  0  0  0  0  0  0  0  0  0  0
    1.3848    0.0966    0.5645 S   0  0  0  0  0  6  0  0  0  0  0  0
    1.9585    1.4032    0.9683 O   0  0  0  0  0  0  0  0  0  0  0  0
    0.8677   -0.5877    1.8085 O   0  0  0  0  0  0  0  0  0  0  0  0
   -0.0426    0.4179   -0.4801 C   0  0  0  0  0  0  0  0  0  0  0  0
   -0.6910   -0.8545   -0.8704 C   0  0  0  0  0  0  0  0  0  0  0  0
   -1.9623   -1.1645   -0.1302 C   0  0  0  0  0  0  0  0  0  0  0  0
   -2.8043   -0.0845   -0.0139 O   0  0  0  0  0  0  0  0  0  0  0  0
   -2.1753    0.8768    0.7616 C   0  0  0  0  0  0  0  0  0  0  0  0
   -0.9439    1.4306    0.1406 C   0  0  0  0  0  0  0  0  0  0  0  0
    3.4936    0.7336   -0.7327 H   0  0  0  0  0  0  0  0  0  0  0  0
    3.2824   -0.4372   -1.9948 H   0  0  0  0  0  0  0  0  0  0  0  0
    2.8359   -1.7220    0.3618 H   0  0  0  0  0  0  0  0  0  0  0  0
    0.3830    0.8929   -1.4090 H   0  0  0  0  0  0  0  0  0  0  0  0
   -0.8736   -0.9284   -1.9815 H   0  0  0  0  0  0  0  0  0  0  0  0
    0.0185   -1.6965   -0.6476 H   0  0  0  0  0  0  0  0  0  0  0  0
   -1.7129   -1.6392    0.8403 H   0  0  0  0  0  0  0  0  0  0  0  0
   -2.5023   -1.9491   -0.7211 H   0  0  0  0  0  0  0  0  0  0  0  0
   -2.9087    1.7246    0.8741 H   0  0  0  0  0  0  0  0  0  0  0  0
   -1.9510    0.5343    1.7837 H   0  0  0  0  0  0  0  0  0  0  0  0
   -1.2374    2.2490   -0.5592 H   0  0  0  0  0  0  0  0  0  0  0  0
   -0.3486    1.9450    0.9516 H   0  0  0  0  0  0  0  0  0  0  0  0
  1  2  1  0
  2  3  1  0
  3  4  2  0
  3  5  2  0
  3  6  1  0
  6  7  1  0
  7  8  1  0
  8  9  1  0
  9 10  1  0
 10 11  1  0
 11  6  1  0
  1 12  1  0
  1 13  1  0
  2 14  1  0
  6 15  1  0
  7 16  1  0
  7 17  1  0
  8 18  1  0
  8 19  1  0
 10 20  1  0
 10 21  1  0
 11 22  1  0
 11 23  1  0
M  END
$$$$

     RDKit          3D

 23 23  0  0  0  0  0  0  0  0999 V2000
    2.8018    0.7839   -0.7770 N   0  0  0  0  0  0  0  0  0  0  0  0
    2.5944   -0.5977   -0.6709 N   0  0  0  0  0  0  0  0  0  0  0  0
    1.3053   -0.8227    0.4515 S   0  0  0  0  0  6  0  0  0  0  0  0
    1.5103   -2.1704    1.0930 O   0  0  0  0  0  0  0  0  0  0  0  0
    1.4112    0.2078    1.5027 O   0  0  0  0  0  0  0  0  0  0  0  0
   -0.2737   -0.8403   -0.3489 C   0  0  0  0  0  0  0  0  0  0  0  0
   -0.5556    0.4012   -1.1200 C   0  0  0  0  0  0  0  0  0  0  0  0
   -1.3211    1.4437   -0.3752 C   0  0  0  0  0  0  0  0  0  0  0  0
   -2.3937    0.9366    0.3447 O   0  0  0  0  0  0  0  0  0  0  0  0
   -1.8822    0.0813    1.3126 C   0  0  0  0  0  0  0  0  0  0  0  0
   -1.3173   -1.1651    0.6673 C   0  0  0  0  0  0  0  0  0  0  0  0
    2.2599    1.3303   -0.0701 H   0  0  0  0  0  0  0  0  0  0  0  0
    3.8217    0.9537   -0.5480 H   0  0  0  0  0  0  0  0  0  0  0  0
    2.2910   -0.9201   -1.6330 H   0  0  0  0  0  0  0  0  0  0  0  0
   -0.2481   -1.6970   -1.0799 H   0  0  0  0  0  0  0  0  0  0  0  0
    0.3687    0.8770   -1.5136 H   0  0  0  0  0  0  0  0  0  0  0  0
   -1.1562    0.1354   -2.0289 H   0  0  0  0  0  0  0  0  0  0  0  0
   -0.6867    2.1015    0.2599 H   0  0  0  0  0  0  0  0  0  0  0  0
   -1.7691    2.1382   -1.1426 H   0  0  0  0  0  0  0  0  0  0  0  0
   -2.6862   -0.2122    1.9970 H   0  0  0  0  0  0  0  0  0  0  0  0
   -1.0949    0.5831    1.9144 H   0  0  0  0  0  0  0  0  0  0  0  0
   -2.1442   -1.7945    0.2702 H   0  0  0  0  0  0  0  0  0  0  0  0
   -0.8354   -1.7536    1.4946 H   0  0  0  0  0  0  0  0  0  0  0  0
  1  2  1  0
  2  3  1  0
  3  4  2  0
  3  5  2  0
  3  6  1  0
  6  7  1  0
  7  8  1  0
  8  9  1  0
  9 10  1  0
 10 11  1  0
 11  6  1  0
  1 12  1  0
  1 13  1  0
  2 14  1  0
  6 15  1  0
  7 16  1  0
  7 17  1  0
  8 18  1  0
  8 19  1  0
 10 20  1  0
 10 21  1  0
 11 22  1  0
 11 23  1  0
M  END
$$$$
