
     RDKit          3D

 31 31  0  0  0  0  0  0  0  0999 V2000
    3.3559   -1.3971    0.5576 C   0  0  0  0  0  0  0  0  0  0  0  0
    3.4357   -0.0906   -0.0719 N   0  0  0  0  0  0  0  0  0  0  0  0
    4.7166    0.4945   -0.3302 C   0  0  0  0  0  0  0  0  0  0  0  0
    2.2231    0.5735   -0.4206 C   0  0  0  0  0  0  0  0  0  0  0  0
    2.2490    1.7150   -0.9622 O   0  0  0  0  0  0  0  0  0  0  0  0
    0.9279   -0.0937   -0.1390 C   0  0  0  0  0  0  0  0  0  0  0  0
   -0.1397    0.7558   -0.5753 N   0  0  0  0  0  0  0  0  0  0  0  0
   -1.4422    0.1839   -0.3737 C   0  0  1  0  0  0  0  0  0  0  0  0
   -1.8229   -0.0718    1.0389 C   0  0  0  0  0  0  0  0  0  0  0  0
   -3.3229    0.0396    1.2538 C   0  0  0  0  0  0  0  0  0  0  0  0
   -4.0461   -0.4412   -0.0108 C   0  0  0  0  0  0  0  0  0  0  0  0
   -3.7788    0.5802   -0.9962 N   0  0  0  0  0  0  0  0  0  0  0  0
   -2.4368    1.0353   -1.0799 C   0  0  0  0  0  0  0  0  0  0  0  0
   -2.1102    2.0877   -1.7075 O   0  0  0  0  0  0  0  0  0  0  0  0
    2.7024   -2.0234   -0.1146 H   0  0  0  0  0  0  0  0  0  0  0  0
    4.3409   -1.8704    0.6647 H   0  0  0  0  0  0  0  0  0  0  0  0
    2.9131   -1.3092    1.5780 H   0  0  0  0  0  0  0  0  0  0  0  0
    4.9979    0.2929   -1.3998 H   0  0  0  0  0  0  0  0  0  0  0  0
    5.4684   -0.0056    0.3278 H   0  0  0  0  0  0  0  0  0  0  0  0
    4.7106    1.5737   -0.1312 H   0  0  0  0  0  0  0  0  0  0  0  0
    0.8990   -0.2289    0.9709 H   0  0  0  0  0  0  0  0  0  0  0  0
    0.8735   -1.0744   -0.6693 H   0  0  0  0  0  0  0  0  0  0  0  0
   -0.0190    0.9903   -1.5830 H   0  0  0  0  0  0  0  0  0  0  0  0
   -1.4421   -0.8032   -0.9155 H   0  0  0  0  0  0  0  0  0  0  0  0
   -1.5318   -1.1148    1.3577 H   0  0  0  0  0  0  0  0  0  0  0  0
   -1.3658    0.6186    1.7798 H   0  0  0  0  0  0  0  0  0  0  0  0
   -3.6763   -0.5152    2.1413 H   0  0  0  0  0  0  0  0  0  0  0  0
   -3.5745    1.1207    1.3808 H   0  0  0  0  0  0  0  0  0  0  0  0
   -3.5023   -1.3697   -0.3192 H   0  0  0  0  0  0  0  0  0  0  0  0
   -5.1037   -0.6275    0.1567 H   0  0  0  0  0  0  0  0  0  0  0  0
   -4.4987    0.9746   -1.6168 H   0  0  0  0  0  0  0  0  0  0  0  0
  1  2  1  0
  2  3  1  0
  2  4  1  0
  4  5  2  0
  4  6  1  0
  6  7  1  0
  7  8  1  0
  8  9  1  0
  9 10  1  0
 10 11  1  0
 11 12  1  0
 12 13  1  0
 13 14  2  0
 13  8  1  0
  1 15  1  0
  1 16  1  0
  1 17  1  0
  3 18  1  0
  3 19  1  0
  3 20  1  0
  6 21  1  0
  6 22  1  0
  7 23  1  0
  8 24  1  6
  9 25  1  0
  9 26  1  0
 10 27  1  0
 10 28  1  0
 11 29  1  0
 11 30  1  0
 12 31  1  0
M  END
$$$$

     RDKit          3D

 31 31  0  0  0  0  0  0  0  0999 V2000
    4.4442    1.2976   -0.4956 C   0  0  0  0  0  0  0  0  0  0  0  0
    3.2449    0.6373    0.0171 N   0  0  0  0  0  0  0  0  0  0  0  0
    3.2162   -0.0683    1.2934 C   0  0  0  0  0  0  0  0  0  0  0  0
    2.0654    0.6805   -0.7503 C   0  0  0  0  0  0  0  0  0  0  0  0
    2.0931    1.2321   -1.8767 O   0  0  0  0  0  0  0  0  0  0  0  0
    0.7780    0.0801   -0.2413 C   0  0  0  0  0  0  0  0  0  0  0  0
   -0.2182    0.2680   -1.2393 N   0  0  0  0  0  0  0  0  0  0  0  0
   -1.5563   -0.0489   -0.8289 C   0  0  1  0  0  0  0  0  0  0  0  0
   -1.8198   -1.4471   -0.4161 C   0  0  0  0  0  0  0  0  0  0  0  0
   -3.3301   -1.5156   -0.1275 C   0  0  0  0  0  0  0  0  0  0  0  0
   -3.6958   -0.7576    1.1057 C   0  0  0  0  0  0  0  0  0  0  0  0
   -2.7718    0.3404    1.3227 N   0  0  0  0  0  0  0  0  0  0  0  0
   -2.0459    0.8681    0.2259 C   0  0  0  0  0  0  0  0  0  0  0  0
   -1.7903    2.1023    0.1030 O   0  0  0  0  0  0  0  0  0  0  0  0
    4.5207    1.2432   -1.5941 H   0  0  0  0  0  0  0  0  0  0  0  0
    5.3558    0.8850   -0.0003 H   0  0  0  0  0  0  0  0  0  0  0  0
    4.3304    2.3782   -0.2028 H   0  0  0  0  0  0  0  0  0  0  0  0
    2.2764    0.2806    1.8040 H   0  0  0  0  0  0  0  0  0  0  0  0
    3.1459   -1.1381    1.1037 H   0  0  0  0  0  0  0  0  0  0  0  0
    4.0761    0.1794    1.9210 H   0  0  0  0  0  0  0  0  0  0  0  0
    1.0341   -1.0090   -0.0566 H   0  0  0  0  0  0  0  0  0  0  0  0
    0.5640    0.5669    0.7445 H   0  0  0  0  0  0  0  0  0  0  0  0
   -0.2083    1.2934   -1.4906 H   0  0  0  0  0  0  0  0  0  0  0  0
   -2.1950    0.1533   -1.7379 H   0  0  0  0  0  0  0  0  0  0  0  0
   -1.3492   -1.7209    0.5589 H   0  0  0  0  0  0  0  0  0  0  0  0
   -1.6344   -2.2251   -1.1727 H   0  0  0  0  0  0  0  0  0  0  0  0
   -3.6810   -2.5556   -0.1320 H   0  0  0  0  0  0  0  0  0  0  0  0
   -3.7959   -0.9846   -1.0125 H   0  0  0  0  0  0  0  0  0  0  0  0
   -4.7159   -0.3272    0.9664 H   0  0  0  0  0  0  0  0  0  0  0  0
   -3.7088   -1.4584    1.9891 H   0  0  0  0  0  0  0  0  0  0  0  0
   -2.6286    0.7699    2.2868 H   0  0  0  0  0  0  0  0  0  0  0  0
  1  2  1  0
  2  3  1  0
  2  4  1  0
  4  5  2  0
  4  6  1  0
  6  7  1  0
  7  8  1  0
  8  9  1  0
  9 10  1  0
 10 11  1  0
 11 12  1  0
 12 13  1  0
 13 14  2  0
 13  8  1  0
  1 15  1  0
  1 16  1  0
  1 17  1  0
  3 18  1  0
  3 19  1  0
  3 20  1  0
  6 21  1  0
  6 22  1  0
  7 23  1  0
  8 24  1  6
  9 25  1  0
  9 26  1  0
 10 27  1  0
 10 28  1  0
 11 29  1  0
 11 30  1  0
 12 31  1  0
M  END
$$$$

     RDKit          3D

 31 31  0  0  0  0  0  0  0  0999 V2000
    4.0372   -0.6976    0.9770 C   0  0  0  0  0  0  0  0  0  0  0  0
    3.0624    0.1775    0.3198 N   0  0  0  0  0  0  0  0  0  0  0  0
    3.3939    1.5850    0.2659 C   0  0  0  0  0  0  0  0  0  0  0  0
    1.8533   -0.3536   -0.2098 C   0  0  0  0  0  0  0  0  0  0  0  0
    1.6482   -1.5875   -0.0721 O   0  0  0  0  0  0  0  0  0  0  0  0
    0.8901    0.5535   -0.8969 C   0  0  0  0  0  0  0  0  0  0  0  0
   -0.2451   -0.2132   -1.2916 N   0  0  0  0  0  0  0  0  0  0  0  0
   -1.0602   -0.5744   -0.1680 C   0  0  1  0  0  0  0  0  0  0  0  0
   -1.6777    0.6628    0.4558 C   0  0  0  0  0  0  0  0  0  0  0  0
   -2.8467    0.2349    1.2987 C   0  0  0  0  0  0  0  0  0  0  0  0
   -3.9832   -0.0979    0.3132 C   0  0  0  0  0  0  0  0  0  0  0  0
   -3.4964   -1.3168   -0.3500 N   0  0  0  0  0  0  0  0  0  0  0  0
   -2.1041   -1.5573   -0.4850 C   0  0  0  0  0  0  0  0  0  0  0  0
   -1.7191   -2.6888   -0.9057 O   0  0  0  0  0  0  0  0  0  0  0  0
    3.4963   -1.6735    1.1572 H   0  0  0  0  0  0  0  0  0  0  0  0
    4.3890   -0.2999    1.9244 H   0  0  0  0  0  0  0  0  0  0  0  0
    4.8464   -0.9363    0.2439 H   0  0  0  0  0  0  0  0  0  0  0  0
    3.7644    1.8587    1.2915 H   0  0  0  0  0  0  0  0  0  0  0  0
    4.1973    1.8016   -0.4462 H   0  0  0  0  0  0  0  0  0  0  0  0
    2.5230    2.2274   -0.0090 H   0  0  0  0  0  0  0  0  0  0  0  0
    1.3816    1.0037   -1.8035 H   0  0  0  0  0  0  0  0  0  0  0  0
    0.6865    1.3745   -0.2102 H   0  0  0  0  0  0  0  0  0  0  0  0
   -0.7664    0.1628   -2.0932 H   0  0  0  0  0  0  0  0  0  0  0  0
   -0.3894   -1.0289    0.6139 H   0  0  0  0  0  0  0  0  0  0  0  0
   -2.0237    1.3119   -0.3993 H   0  0  0  0  0  0  0  0  0  0  0  0
   -0.9593    1.2560    1.0593 H   0  0  0  0  0  0  0  0  0  0  0  0
   -3.1701    1.0010    2.0309 H   0  0  0  0  0  0  0  0  0  0  0  0
   -2.6178   -0.7209    1.8360 H   0  0  0  0  0  0  0  0  0  0  0  0
   -4.9361   -0.2299    0.8156 H   0  0  0  0  0  0  0  0  0  0  0  0
   -3.9652    0.7421   -0.4256 H   0  0  0  0  0  0  0  0  0  0  0  0
   -4.2092   -1.9768   -0.7044 H   0  0  0  0  0  0  0  0  0  0  0  0
  1  2  1  0
  2  3  1  0
  2  4  1  0
  4  5  2  0
  4  6  1  0
  6  7  1  0
  7  8  1  0
  8  9  1  0
  9 10  1  0
 10 11  1  0
 11 12  1  0
 12 13  1  0
 13 14  2  0
 13  8  1  0
  1 15  1  0
  1 16  1  0
  1 17  1  0
  3 18  1  0
  3 19  1  0
  3 20  1  0
  6 21  1  0
  6 22  1  0
  7 23  1  0
  8 24  1  1
  9 25  1  0
  9 26  1  0
 10 27  1  0
 10 28  1  0
 11 29  1  0
 11 30  1  0
 12 31  1  0
M  END
$$$$

     RDKit          3D

 31 31  0  0  0  0  0  0  0  0999 V2000
    3.7864    1.6672    0.1799 C   0  0  0  0  0  0  0  0  0  0  0  0
    3.0898    0.4112   -0.1148 N   0  0  0  0  0  0  0  0  0  0  0  0
    3.8133   -0.8234   -0.0074 C   0  0  0  0  0  0  0  0  0  0  0  0
    1.7436    0.4572   -0.5175 C   0  0  0  0  0  0  0  0  0  0  0  0
    1.1108    1.5296   -0.6508 O   0  0  0  0  0  0  0  0  0  0  0  0
    1.0468   -0.8338   -0.8002 C   0  0  0  0  0  0  0  0  0  0  0  0
   -0.3007   -0.6979   -1.2296 N   0  0  0  0  0  0  0  0  0  0  0  0
   -1.1896   -0.2438   -0.2080 C   0  0  1  0  0  0  0  0  0  0  0  0
   -2.0917    0.8689   -0.6352 C   0  0  0  0  0  0  0  0  0  0  0  0
   -3.5349    0.4840   -0.4651 C   0  0  0  0  0  0  0  0  0  0  0  0
   -3.7129    0.0558    1.0068 C   0  0  0  0  0  0  0  0  0  0  0  0
   -3.0902   -1.2421    1.0713 N   0  0  0  0  0  0  0  0  0  0  0  0
   -1.9076   -1.4427    0.3298 C   0  0  0  0  0  0  0  0  0  0  0  0
   -1.4748   -2.6290    0.1358 O   0  0  0  0  0  0  0  0  0  0  0  0
    3.8757    2.1977   -0.8036 H   0  0  0  0  0  0  0  0  0  0  0  0
    3.2070    2.2939    0.8774 H   0  0  0  0  0  0  0  0  0  0  0  0
    4.8122    1.4473    0.5657 H   0  0  0  0  0  0  0  0  0  0  0  0
    4.8684   -0.6293   -0.3359 H   0  0  0  0  0  0  0  0  0  0  0  0
    3.4018   -1.6381   -0.6442 H   0  0  0  0  0  0  0  0  0  0  0  0
    3.8545   -1.1387    1.0446 H   0  0  0  0  0  0  0  0  0  0  0  0
    1.0930   -1.3868    0.2021 H   0  0  0  0  0  0  0  0  0  0  0  0
    1.6246   -1.4627   -1.5114 H   0  0  0  0  0  0  0  0  0  0  0  0
   -0.3389   -0.0244   -2.0570 H   0  0  0  0  0  0  0  0  0  0  0  0
   -0.5758    0.1139    0.6817 H   0  0  0  0  0  0  0  0  0  0  0  0
   -1.9707    1.8016   -0.0220 H   0  0  0  0  0  0  0  0  0  0  0  0
   -1.8909    1.2007   -1.6937 H   0  0  0  0  0  0  0  0  0  0  0  0
   -3.7002   -0.4250   -1.0996 H   0  0  0  0  0  0  0  0  0  0  0  0
   -4.2381    1.2683   -0.7320 H   0  0  0  0  0  0  0  0  0  0  0  0
   -4.7620    0.0894    1.3266 H   0  0  0  0  0  0  0  0  0  0  0  0
   -3.0521    0.7210    1.6355 H   0  0  0  0  0  0  0  0  0  0  0  0
   -3.4968   -1.9901    1.6360 H   0  0  0  0  0  0  0  0  0  0  0  0
  1  2  1  0
  2  3  1  0
  2  4  1  0
  4  5  2  0
  4  6  1  0
  6  7  1  0
  7  8  1  0
  8  9  1  0
  9 10  1  0
 10 11  1  0
 11 12  1  0
 12 13  1  0
 13 14  2  0
 13  8  1  0
  1 15  1  0
  1 16  1  0
  1 17  1  0
  3 18  1  0
  3 19  1  0
  3 20  1  0
  6 21  1  0
  6 22  1  0
  7 23  1  0
  8 24  1  1
  9 25  1  0
  9 26  1  0
 10 27  1  0
 10 28  1  0
 11 29  1  0
 11 30  1  0
 12 31  1  0
M  END
$$$$

     RDKit          3D

 31 31  0  0  0  0  0  0  0  0999 V2000
    2.6925    1.2495   -0.4900 C   0  0  0  0  0  0  0  0  0  0  0  0
    3.1482   -0.1104   -0.4327 N   0  0  0  0  0  0  0  0  0  0  0  0
    4.5463   -0.3618   -0.6926 C   0  0  0  0  0  0  0  0  0  0  0  0
    2.2924   -1.1638   -0.1119 C   0  0  0  0  0  0  0  0  0  0  0  0
    2.8508   -2.3402   -0.1183 O   0  0  0  0  0  0  0  0  0  0  0  0
    0.8836   -1.1862    0.2297 C   0  0  0  0  0  0  0  0  0  0  0  0
    0.1787    0.0458    0.2561 N   0  0  0  0  0  0  0  0  0  0  0  0
   -1.1593   -0.0552    0.7984 C   0  0  1  0  0  0  0  0  0  0  0  0
   -1.8535    1.2635    0.5710 C   0  0  0  0  0  0  0  0  0  0  0  0
   -3.3247    1.0384    0.8065 C   0  0  0  0  0  0  0  0  0  0  0  0
   -3.8517    0.3352   -0.4532 C   0  0  0  0  0  0  0  0  0  0  0  0
   -3.1658   -0.9465   -0.4704 N   0  0  0  0  0  0  0  0  0  0  0  0
   -1.9631   -1.1801    0.2926 C   0  0  0  0  0  0  0  0  0  0  0  0
   -1.5760   -2.3586    0.5408 O   0  0  0  0  0  0  0  0  0  0  0  0
    2.1272    1.4850   -1.3960 H   0  0  0  0  0  0  0  0  0  0  0  0
    2.0612    1.4994    0.4001 H   0  0  0  0  0  0  0  0  0  0  0  0
    3.5632    1.9728   -0.4180 H   0  0  0  0  0  0  0  0  0  0  0  0
    4.8974   -1.2774   -0.1281 H   0  0  0  0  0  0  0  0  0  0  0  0
    5.1989    0.4566   -0.3401 H   0  0  0  0  0  0  0  0  0  0  0  0
    4.7037   -0.4949   -1.7682 H   0  0  0  0  0  0  0  0  0  0  0  0
    0.7244   -1.7154    1.2104 H   0  0  0  0  0  0  0  0  0  0  0  0
    0.3801   -1.8771   -0.5284 H   0  0  0  0  0  0  0  0  0  0  0  0
    0.1324    0.5169   -0.6880 H   0  0  0  0  0  0  0  0  0  0  0  0
   -1.0187   -0.1337    1.9191 H   0  0  0  0  0  0  0  0  0  0  0  0
   -1.4410    2.0724    1.1936 H   0  0  0  0  0  0  0  0  0  0  0  0
   -1.6996    1.5262   -0.4987 H   0  0  0  0  0  0  0  0  0  0  0  0
   -3.8951    1.9432    1.0338 H   0  0  0  0  0  0  0  0  0  0  0  0
   -3.4240    0.3204    1.6600 H   0  0  0  0  0  0  0  0  0  0  0  0
   -4.9441    0.2435   -0.4274 H   0  0  0  0  0  0  0  0  0  0  0  0
   -3.5231    0.9610   -1.3250 H   0  0  0  0  0  0  0  0  0  0  0  0
   -3.5413   -1.7284   -1.0444 H   0  0  0  0  0  0  0  0  0  0  0  0
  1  2  1  0
  2  3  1  0
  2  4  1  0
  4  5  2  0
  4  6  1  0
  6  7  1  0
  7  8  1  0
  8  9  1  0
  9 10  1  0
 10 11  1  0
 11 12  1  0
 12 13  1  0
 13 14  2  0
 13  8  1  0
  1 15  1  0
  1 16  1  0
  1 17  1  0
  3 18  1  0
  3 19  1  0
  3 20  1  0
  6 21  1  0
  6 22  1  0
  7 23  1  0
  8 24  1  1
  9 25  1  0
  9 26  1  0
 10 27  1  0
 10 28  1  0
 11 29  1  0
 11 30  1  0
 12 31  1  0
M  END
$$$$

     RDKit          3D

 31 31  0  0  0  0  0  0  0  0999 V2000
    3.5573   -0.3312   -0.9359 C   0  0  0  0  0  0  0  0  0  0  0  0
    2.9711    0.5693    0.0322 N   0  0  0  0  0  0  0  0  0  0  0  0
    3.6080    1.8018    0.4347 C   0  0  0  0  0  0  0  0  0  0  0  0
    1.6978    0.2443    0.6366 C   0  0  0  0  0  0  0  0  0  0  0  0
    1.2505    1.0775    1.4452 O   0  0  0  0  0  0  0  0  0  0  0  0
    1.1035   -1.0249    0.2165 C   0  0  0  0  0  0  0  0  0  0  0  0
   -0.1106   -1.4571    0.6714 N   0  0  0  0  0  0  0  0  0  0  0  0
   -1.3764   -1.0145    0.3678 C   0  0  1  0  0  0  0  0  0  0  0  0
   -1.6278    0.4033    0.7542 C   0  0  0  0  0  0  0  0  0  0  0  0
   -3.0754    0.8190    0.6209 C   0  0  0  0  0  0  0  0  0  0  0  0
   -3.7864    0.2974   -0.5660 C   0  0  0  0  0  0  0  0  0  0  0  0
   -2.9830   -0.5543   -1.4426 N   0  0  0  0  0  0  0  0  0  0  0  0
   -1.9149   -1.3386   -0.9705 C   0  0  0  0  0  0  0  0  0  0  0  0
   -1.4478   -2.2524   -1.6402 O   0  0  0  0  0  0  0  0  0  0  0  0
    3.6448   -1.3724   -0.5697 H   0  0  0  0  0  0  0  0  0  0  0  0
    4.5423    0.0743   -1.2221 H   0  0  0  0  0  0  0  0  0  0  0  0
    2.9312   -0.2914   -1.8750 H   0  0  0  0  0  0  0  0  0  0  0  0
    4.0026    1.7498    1.4633 H   0  0  0  0  0  0  0  0  0  0  0  0
    2.9341    2.7013    0.3196 H   0  0  0  0  0  0  0  0  0  0  0  0
    4.4594    1.9745   -0.2820 H   0  0  0  0  0  0  0  0  0  0  0  0
    1.2762   -1.0740   -0.8936 H   0  0  0  0  0  0  0  0  0  0  0  0
    1.8797   -1.7992    0.5657 H   0  0  0  0  0  0  0  0  0  0  0  0
   -0.0599   -2.0738    1.5441 H   0  0  0  0  0  0  0  0  0  0  0  0
   -2.0971   -1.5981    1.0552 H   0  0  0  0  0  0  0  0  0  0  0  0
   -1.3696    0.5236    1.8193 H   0  0  0  0  0  0  0  0  0  0  0  0
   -1.0546    1.1642    0.1879 H   0  0  0  0  0  0  0  0  0  0  0  0
   -3.1369    1.9288    0.6087 H   0  0  0  0  0  0  0  0  0  0  0  0
   -3.6492    0.5213    1.5380 H   0  0  0  0  0  0  0  0  0  0  0  0
   -4.1965    1.1369   -1.1852 H   0  0  0  0  0  0  0  0  0  0  0  0
   -4.7196   -0.2558   -0.2473 H   0  0  0  0  0  0  0  0  0  0  0  0
   -3.2527   -0.5494   -2.4512 H   0  0  0  0  0  0  0  0  0  0  0  0
  1  2  1  0
  2  3  1  0
  2  4  1  0
  4  5  2  0
  4  6  1  0
  6  7  1  0
  7  8  1  0
  8  9  1  0
  9 10  1  0
 10 11  1  0
 11 12  1  0
 12 13  1  0
 13 14  2  0
 13  8  1  0
  1 15  1  0
  1 16  1  0
  1 17  1  0
  3 18  1  0
  3 19  1  0
  3 20  1  0
  6 21  1  0
  6 22  1  0
  7 23  1  0
  8 24  1  1
  9 25  1  0
  9 26  1  0
 10 27  1  0
 10 28  1  0
 11 29  1  0
 11 30  1  0
 12 31  1  0
M  END
$$$$

     RDKit          3D

 31 31  0  0  0  0  0  0  0  0999 V2000
    3.8413   -0.5779   -0.1516 C   0  0  0  0  0  0  0  0  0  0  0  0
    2.9460    0.5236    0.0277 N   0  0  0  0  0  0  0  0  0  0  0  0
    3.4273    1.7882    0.4557 C   0  0  0  0  0  0  0  0  0  0  0  0
    1.5655    0.3313   -0.2367 C   0  0  0  0  0  0  0  0  0  0  0  0
    0.8548    1.3518   -0.0502 O   0  0  0  0  0  0  0  0  0  0  0  0
    1.0441   -0.9766   -0.6937 C   0  0  0  0  0  0  0  0  0  0  0  0
   -0.3340   -1.0222   -0.8547 N   0  0  0  0  0  0  0  0  0  0  0  0
   -1.2590   -1.1018    0.1670 C   0  0  1  0  0  0  0  0  0  0  0  0
   -1.4393   -0.0709    1.2031 C   0  0  0  0  0  0  0  0  0  0  0  0
   -2.2117    1.1022    0.6332 C   0  0  0  0  0  0  0  0  0  0  0  0
   -3.6946    0.7000    0.7021 C   0  0  0  0  0  0  0  0  0  0  0  0
   -3.7730   -0.5905    0.0296 N   0  0  0  0  0  0  0  0  0  0  0  0
   -2.6323   -1.2351   -0.5013 C   0  0  0  0  0  0  0  0  0  0  0  0
   -2.7230   -1.9303   -1.5325 O   0  0  0  0  0  0  0  0  0  0  0  0
    3.3333   -1.4642   -0.6144 H   0  0  0  0  0  0  0  0  0  0  0  0
    4.1336   -0.9239    0.8798 H   0  0  0  0  0  0  0  0  0  0  0  0
    4.7537   -0.2966   -0.7248 H   0  0  0  0  0  0  0  0  0  0  0  0
    4.5358    1.8751    0.4568 H   0  0  0  0  0  0  0  0  0  0  0  0
    2.9676    2.6207   -0.1374 H   0  0  0  0  0  0  0  0  0  0  0  0
    3.0617    1.9521    1.5119 H   0  0  0  0  0  0  0  0  0  0  0  0
    1.4090   -1.8030   -0.0212 H   0  0  0  0  0  0  0  0  0  0  0  0
    1.5383   -1.2376   -1.6859 H   0  0  0  0  0  0  0  0  0  0  0  0
   -0.6783   -0.8375   -1.8149 H   0  0  0  0  0  0  0  0  0  0  0  0
   -1.1172   -2.1313    0.6636 H   0  0  0  0  0  0  0  0  0  0  0  0
   -2.1300   -0.5727    1.9891 H   0  0  0  0  0  0  0  0  0  0  0  0
   -0.5752    0.2340    1.7948 H   0  0  0  0  0  0  0  0  0  0  0  0
   -2.0346    2.0119    1.2686 H   0  0  0  0  0  0  0  0  0  0  0  0
   -1.8976    1.2728   -0.4095 H   0  0  0  0  0  0  0  0  0  0  0  0
   -4.2794    1.4826    0.2349 H   0  0  0  0  0  0  0  0  0  0  0  0
   -3.9098    0.5472    1.7821 H   0  0  0  0  0  0  0  0  0  0  0  0
   -4.7227   -1.0212   -0.0439 H   0  0  0  0  0  0  0  0  0  0  0  0
  1  2  1  0
  2  3  1  0
  2  4  1  0
  4  5  2  0
  4  6  1  0
  6  7  1  0
  7  8  1  0
  8  9  1  0
  9 10  1  0
 10 11  1  0
 11 12  1  0
 12 13  1  0
 13 14  2  0
 13  8  1  0
  1 15  1  0
  1 16  1  0
  1 17  1  0
  3 18  1  0
  3 19  1  0
  3 20  1  0
  6 21  1  0
  6 22  1  0
  7 23  1  0
  8 24  1  1
  9 25  1  0
  9 26  1  0
 10 27  1  0
 10 28  1  0
 11 29  1  0
 11 30  1  0
 12 31  1  0
M  END
$$$$

     RDKit          3D

 31 31  0  0  0  0  0  0  0  0999 V2000
   -4.5438    0.8252   -0.2762 C   0  0  0  0  0  0  0  0  0  0  0  0
   -3.1381    0.4123   -0.0421 N   0  0  0  0  0  0  0  0  0  0  0  0
   -2.8253   -0.4991    1.0163 C   0  0  0  0  0  0  0  0  0  0  0  0
   -2.1671    0.9763   -0.8700 C   0  0  0  0  0  0  0  0  0  0  0  0
   -2.5832    1.8562   -1.7398 O   0  0  0  0  0  0  0  0  0  0  0  0
   -0.7380    0.6850   -0.8642 C   0  0  0  0  0  0  0  0  0  0  0  0
   -0.2765   -0.3260    0.0422 N   0  0  0  0  0  0  0  0  0  0  0  0
    1.1688   -0.3680   -0.0647 C   0  0  1  0  0  0  0  0  0  0  0  0
    1.8920    0.8442    0.3628 C   0  0  0  0  0  0  0  0  0  0  0  0
    3.3753    0.5360    0.4327 C   0  0  0  0  0  0  0  0  0  0  0  0
    3.7523   -0.6717   -0.4054 C   0  0  0  0  0  0  0  0  0  0  0  0
    3.1146   -1.8071    0.2435 N   0  0  0  0  0  0  0  0  0  0  0  0
    1.7487   -1.5602    0.6027 C   0  0  0  0  0  0  0  0  0  0  0  0
    1.1155   -2.2906    1.4053 O   0  0  0  0  0  0  0  0  0  0  0  0
   -4.8832    0.2312   -1.1393 H   0  0  0  0  0  0  0  0  0  0  0  0
   -5.0928    0.6071    0.6533 H   0  0  0  0  0  0  0  0  0  0  0  0
   -4.5156    1.9016   -0.5195 H   0  0  0  0  0  0  0  0  0  0  0  0
   -3.7086   -0.4787    1.7393 H   0  0  0  0  0  0  0  0  0  0  0  0
   -1.9421   -0.1717    1.5723 H   0  0  0  0  0  0  0  0  0  0  0  0
   -2.6987   -1.5196    0.6377 H   0  0  0  0  0  0  0  0  0  0  0  0
   -0.3250    0.4992   -1.8883 H   0  0  0  0  0  0  0  0  0  0  0  0
   -0.2311    1.6531   -0.5644 H   0  0  0  0  0  0  0  0  0  0  0  0
   -0.6523   -1.2448   -0.3686 H   0  0  0  0  0  0  0  0  0  0  0  0
    1.3563   -0.4789   -1.1786 H   0  0  0  0  0  0  0  0  0  0  0  0
    1.5608    1.2184    1.3743 H   0  0  0  0  0  0  0  0  0  0  0  0
    1.7885    1.6558   -0.3884 H   0  0  0  0  0  0  0  0  0  0  0  0
    4.0042    1.3774    0.0935 H   0  0  0  0  0  0  0  0  0  0  0  0
    3.5924    0.2344    1.4974 H   0  0  0  0  0  0  0  0  0  0  0  0
    4.8260   -0.8221   -0.3387 H   0  0  0  0  0  0  0  0  0  0  0  0
    3.4615   -0.5565   -1.4688 H   0  0  0  0  0  0  0  0  0  0  0  0
    3.5646   -2.7184    0.4436 H   0  0  0  0  0  0  0  0  0  0  0  0
  1  2  1  0
  2  3  1  0
  2  4  1  0
  4  5  2  0
  4  6  1  0
  6  7  1  0
  7  8  1  0
  8  9  1  0
  9 10  1  0
 10 11  1  0
 11 12  1  0
 12 13  1  0
 13 14  2  0
 13  8  1  0
  1 15  1  0
  1 16  1  0
  1 17  1  0
  3 18  1  0
  3 19  1  0
  3 20  1  0
  6 21  1  0
  6 22  1  0
  7 23  1  0
  8 24  1  6
  9 25  1  0
  9 26  1  0
 10 27  1  0
 10 28  1  0
 11 29  1  0
 11 30  1  0
 12 31  1  0
M  END
$$$$
