
     RDKit          3D

 26 27  0  0  0  0  0  0  0  0999 V2000
   -2.4148   -1.5764    0.3397 C   0  0  0  0  0  0  0  0  0  0  0  0
   -1.7027   -0.5413   -0.5245 C   0  0  2  0  0  0  0  0  0  0  0  0
   -0.4443   -0.1919    0.0951 N   0  0  0  0  0  0  0  0  0  0  0  0
    0.8129   -0.3812   -0.5249 C   0  0  0  0  0  0  0  0  0  0  0  0
    0.8421   -0.8779   -1.6719 O   0  0  0  0  0  0  0  0  0  0  0  0
    2.0353    0.0041    0.1821 C   0  0  1  0  0  0  0  0  0  0  0  0
    3.1936   -0.9751   -0.0263 C   0  0  0  0  0  0  0  0  0  0  0  0
    3.2573    0.4339   -0.5432 C   0  0  2  0  0  0  0  0  0  0  0  0
    4.2104    1.2749    0.1425 N   0  0  0  0  0  0  0  0  0  0  0  0
   -2.5416    0.6658   -0.6217 C   0  0  0  0  0  0  0  0  0  0  0  0
   -2.1281    1.8764   -1.0364 N   0  0  0  0  0  0  0  0  0  0  0  0
   -3.1874    2.6724   -0.9726 N   0  0  0  0  0  0  0  0  0  0  0  0
   -4.2428    1.9855   -0.5299 N   0  0  0  0  0  0  0  0  0  0  0  0
   -3.8493    0.7422   -0.3108 N   0  0  0  0  0  0  0  0  0  0  0  0
   -1.7100   -2.4415    0.4810 H   0  0  0  0  0  0  0  0  0  0  0  0
   -2.6736   -1.0951    1.2893 H   0  0  0  0  0  0  0  0  0  0  0  0
   -3.3262   -1.9133   -0.1825 H   0  0  0  0  0  0  0  0  0  0  0  0
   -1.4938   -0.9681   -1.5373 H   0  0  0  0  0  0  0  0  0  0  0  0
   -0.5182    0.2267    1.0690 H   0  0  0  0  0  0  0  0  0  0  0  0
    1.9245    0.4390    1.1987 H   0  0  0  0  0  0  0  0  0  0  0  0
    3.7094   -1.2618    0.8986 H   0  0  0  0  0  0  0  0  0  0  0  0
    3.0962   -1.7376   -0.8172 H   0  0  0  0  0  0  0  0  0  0  0  0
    3.2074    0.6106   -1.6313 H   0  0  0  0  0  0  0  0  0  0  0  0
    3.8357    2.2232    0.3673 H   0  0  0  0  0  0  0  0  0  0  0  0
    4.5806    0.8372    1.0109 H   0  0  0  0  0  0  0  0  0  0  0  0
   -4.4726   -0.0307    0.0447 H   0  0  0  0  0  0  0  0  0  0  0  0
  1  2  1  0
  2  3  1  0
  3  4  1  0
  4  5  2  0
  4  6  1  0
  6  7  1  0
  7  8  1  0
  8  9  1  0
  2 10  1  0
 10 11  2  0
 11 12  1  0
 12 13  2  0
 13 14  1  0
  8  6  1  0
 14 10  1  0
  1 15  1  0
  1 16  1  0
  1 17  1  0
  2 18  1  6
  3 19  1  0
  6 20  1  1
  7 21  1  0
  7 22  1  0
  8 23  1  6
  9 24  1  0
  9 25  1  0
 14 26  1  0
M  END
$$$$

     RDKit          3D

 26 27  0  0  0  0  0  0  0  0999 V2000
   -2.4951    1.6105   -0.3389 C   0  0  0  0  0  0  0  0  0  0  0  0
   -1.7896    0.2982   -0.2527 C   0  0  2  0  0  0  0  0  0  0  0  0
   -0.3370    0.4404   -0.3248 N   0  0  0  0  0  0  0  0  0  0  0  0
    0.5347    0.0506    0.7053 C   0  0  0  0  0  0  0  0  0  0  0  0
    0.0152   -0.4505    1.7478 O   0  0  0  0  0  0  0  0  0  0  0  0
    2.0141    0.1912    0.6414 C   0  0  1  0  0  0  0  0  0  0  0  0
    2.6401    0.5859    1.9860 C   0  0  0  0  0  0  0  0  0  0  0  0
    2.8797   -0.7730    1.3546 C   0  0  2  0  0  0  0  0  0  0  0  0
    4.2125   -0.9778    0.8745 N   0  0  0  0  0  0  0  0  0  0  0  0
   -2.2858   -0.6739   -1.2685 C   0  0  0  0  0  0  0  0  0  0  0  0
   -1.7018   -1.8672   -1.4993 N   0  0  0  0  0  0  0  0  0  0  0  0
   -2.3936   -2.4679   -2.4554 N   0  0  0  0  0  0  0  0  0  0  0  0
   -3.3914   -1.6843   -2.8271 N   0  0  0  0  0  0  0  0  0  0  0  0
   -3.3275   -0.5793   -2.0983 N   0  0  0  0  0  0  0  0  0  0  0  0
   -1.8109    2.4811   -0.1717 H   0  0  0  0  0  0  0  0  0  0  0  0
   -3.0220    1.7826   -1.2995 H   0  0  0  0  0  0  0  0  0  0  0  0
   -3.2938    1.6628    0.4548 H   0  0  0  0  0  0  0  0  0  0  0  0
   -1.9957   -0.1585    0.7434 H   0  0  0  0  0  0  0  0  0  0  0  0
    0.0674    0.8547   -1.1911 H   0  0  0  0  0  0  0  0  0  0  0  0
    2.4316    0.6295   -0.2767 H   0  0  0  0  0  0  0  0  0  0  0  0
    3.4332    1.3561    1.9016 H   0  0  0  0  0  0  0  0  0  0  0  0
    2.0122    0.5693    2.8817 H   0  0  0  0  0  0  0  0  0  0  0  0
    2.4414   -1.6723    1.8615 H   0  0  0  0  0  0  0  0  0  0  0  0
    4.8461   -0.1983    1.1435 H   0  0  0  0  0  0  0  0  0  0  0  0
    4.2958   -1.2177   -0.1188 H   0  0  0  0  0  0  0  0  0  0  0  0
   -3.9796    0.2079   -2.1735 H   0  0  0  0  0  0  0  0  0  0  0  0
  1  2  1  0
  2  3  1  0
  3  4  1  0
  4  5  2  0
  4  6  1  0
  6  7  1  0
  7  8  1  0
  8  9  1  0
  2 10  1  0
 10 11  2  0
 11 12  1  0
 12 13  2  0
 13 14  1  0
  8  6  1  0
 14 10  1  0
  1 15  1  0
  1 16  1  0
  1 17  1  0
  2 18  1  1
  3 19  1  0
  6 20  1  6
  7 21  1  0
  7 22  1  0
  8 23  1  1
  9 24  1  0
  9 25  1  0
 14 26  1  0
M  END
$$$$

     RDKit          3D

 26 27  0  0  0  0  0  0  0  0999 V2000
   -1.9089   -1.1608   -1.6236 C   0  0  0  0  0  0  0  0  0  0  0  0
   -1.5704    0.0046   -0.7162 C   0  0  2  0  0  0  0  0  0  0  0  0
   -0.2159   -0.0246   -0.2669 N   0  0  0  0  0  0  0  0  0  0  0  0
    0.7714    0.9623   -0.5396 C   0  0  0  0  0  0  0  0  0  0  0  0
    0.4210    1.9527   -1.2409 O   0  0  0  0  0  0  0  0  0  0  0  0
    2.1530    0.8912   -0.0568 C   0  0  1  0  0  0  0  0  0  0  0  0
    2.3090    0.4025    1.3557 C   0  0  0  0  0  0  0  0  0  0  0  0
    2.8296   -0.4045    0.1837 C   0  0  2  0  0  0  0  0  0  0  0  0
    4.2463   -0.5559    0.0919 N   0  0  0  0  0  0  0  0  0  0  0  0
   -2.5618    0.0436    0.3671 C   0  0  0  0  0  0  0  0  0  0  0  0
   -2.4905   -0.7418    1.4572 N   0  0  0  0  0  0  0  0  0  0  0  0
   -3.5348   -0.4614    2.2411 N   0  0  0  0  0  0  0  0  0  0  0  0
   -4.2535    0.4852    1.6559 N   0  0  0  0  0  0  0  0  0  0  0  0
   -3.6615    0.7872    0.5235 N   0  0  0  0  0  0  0  0  0  0  0  0
   -2.9222   -1.5695   -1.3855 H   0  0  0  0  0  0  0  0  0  0  0  0
   -1.1927   -1.9861   -1.3700 H   0  0  0  0  0  0  0  0  0  0  0  0
   -1.8121   -0.9039   -2.6857 H   0  0  0  0  0  0  0  0  0  0  0  0
   -1.7070    0.9428   -1.3185 H   0  0  0  0  0  0  0  0  0  0  0  0
    0.0907   -0.8355    0.3136 H   0  0  0  0  0  0  0  0  0  0  0  0
    2.8239    1.7211   -0.3368 H   0  0  0  0  0  0  0  0  0  0  0  0
    3.0740    0.8944    1.9917 H   0  0  0  0  0  0  0  0  0  0  0  0
    1.4057    0.0453    1.8872 H   0  0  0  0  0  0  0  0  0  0  0  0
    2.2649   -1.3678    0.0178 H   0  0  0  0  0  0  0  0  0  0  0  0
    4.7560   -0.4720    0.9757 H   0  0  0  0  0  0  0  0  0  0  0  0
    4.6909   -0.1520   -0.7361 H   0  0  0  0  0  0  0  0  0  0  0  0
   -4.0051    1.5030   -0.1492 H   0  0  0  0  0  0  0  0  0  0  0  0
  1  2  1  0
  2  3  1  0
  3  4  1  0
  4  5  2  0
  4  6  1  0
  6  7  1  0
  7  8  1  0
  8  9  1  0
  2 10  1  0
 10 11  2  0
 11 12  1  0
 12 13  2  0
 13 14  1  0
  8  6  1  0
 14 10  1  0
  1 15  1  0
  1 16  1  0
  1 17  1  0
  2 18  1  6
  3 19  1  0
  6 20  1  1
  7 21  1  0
  7 22  1  0
  8 23  1  6
  9 24  1  0
  9 25  1  0
 14 26  1  0
M  END
$$$$

     RDKit          3D

 26 27  0  0  0  0  0  0  0  0999 V2000
   -2.3047   -1.7887    0.4716 C   0  0  0  0  0  0  0  0  0  0  0  0
   -1.7739   -0.7220   -0.4600 C   0  0  2  0  0  0  0  0  0  0  0  0
   -0.5760   -0.1941    0.1641 N   0  0  0  0  0  0  0  0  0  0  0  0
    0.7142   -0.2746   -0.3851 C   0  0  0  0  0  0  0  0  0  0  0  0
    0.8415   -0.8458   -1.4992 O   0  0  0  0  0  0  0  0  0  0  0  0
    1.9372    0.2700    0.2626 C   0  0  1  0  0  0  0  0  0  0  0  0
    3.1277   -0.7058    0.1882 C   0  0  0  0  0  0  0  0  0  0  0  0
    3.1093    0.6434   -0.5184 C   0  0  2  0  0  0  0  0  0  0  0  0
    4.0360    1.5949    0.0670 N   0  0  0  0  0  0  0  0  0  0  0  0
   -2.8051    0.3116   -0.6570 C   0  0  0  0  0  0  0  0  0  0  0  0
   -4.1060    0.1308   -0.3769 N   0  0  0  0  0  0  0  0  0  0  0  0
   -4.7848    1.2085   -0.6480 N   0  0  0  0  0  0  0  0  0  0  0  0
   -3.9061    2.0807   -1.1042 N   0  0  0  0  0  0  0  0  0  0  0  0
   -2.6917    1.5647   -1.1218 N   0  0  0  0  0  0  0  0  0  0  0  0
   -3.4177   -1.8720    0.4264 H   0  0  0  0  0  0  0  0  0  0  0  0
   -1.8117   -2.7678    0.2575 H   0  0  0  0  0  0  0  0  0  0  0  0
   -2.0682   -1.5643    1.5383 H   0  0  0  0  0  0  0  0  0  0  0  0
   -1.5757   -1.2027   -1.4256 H   0  0  0  0  0  0  0  0  0  0  0  0
   -0.6932    0.2774    1.0875 H   0  0  0  0  0  0  0  0  0  0  0  0
    1.8003    0.7742    1.2536 H   0  0  0  0  0  0  0  0  0  0  0  0
    3.7000   -0.8245    1.1143 H   0  0  0  0  0  0  0  0  0  0  0  0
    3.0595   -1.5531   -0.5052 H   0  0  0  0  0  0  0  0  0  0  0  0
    3.1073    0.6666   -1.6263 H   0  0  0  0  0  0  0  0  0  0  0  0
    3.8755    1.6282    1.0976 H   0  0  0  0  0  0  0  0  0  0  0  0
    4.9967    1.1628   -0.0428 H   0  0  0  0  0  0  0  0  0  0  0  0
   -1.7904    2.0017   -1.4268 H   0  0  0  0  0  0  0  0  0  0  0  0
  1  2  1  0
  2  3  1  0
  3  4  1  0
  4  5  2  0
  4  6  1  0
  6  7  1  0
  7  8  1  0
  8  9  1  0
  2 10  1  0
 10 11  2  0
 11 12  1  0
 12 13  2  0
 13 14  1  0
  8  6  1  0
 14 10  1  0
  1 15  1  0
  1 16  1  0
  1 17  1  0
  2 18  1  6
  3 19  1  0
  6 20  1  1
  7 21  1  0
  7 22  1  0
  8 23  1  6
  9 24  1  0
  9 25  1  0
 14 26  1  0
M  END
$$$$

     RDKit          3D

 26 27  0  0  0  0  0  0  0  0999 V2000
    2.5250   -0.1170   -1.2129 C   0  0  0  0  0  0  0  0  0  0  0  0
    1.7616   -0.4755    0.0415 C   0  0  2  0  0  0  0  0  0  0  0  0
    0.3399   -0.2197   -0.1396 N   0  0  0  0  0  0  0  0  0  0  0  0
   -0.6305   -1.2574   -0.0683 C   0  0  0  0  0  0  0  0  0  0  0  0
   -0.2895   -2.4392    0.1554 O   0  0  0  0  0  0  0  0  0  0  0  0
   -2.0666   -0.9264   -0.2629 C   0  0  1  0  0  0  0  0  0  0  0  0
   -2.5206    0.4267    0.1665 C   0  0  0  0  0  0  0  0  0  0  0  0
   -2.3135    0.1970   -1.2828 C   0  0  2  0  0  0  0  0  0  0  0  0
   -3.4358   -0.0487   -2.1580 N   0  0  0  0  0  0  0  0  0  0  0  0
    2.2526    0.2853    1.1939 C   0  0  0  0  0  0  0  0  0  0  0  0
    3.3922    1.0002    1.2276 N   0  0  0  0  0  0  0  0  0  0  0  0
    3.4746    1.5295    2.4303 N   0  0  0  0  0  0  0  0  0  0  0  0
    2.4351    1.1810    3.1630 N   0  0  0  0  0  0  0  0  0  0  0  0
    1.6840    0.4144    2.3983 N   0  0  0  0  0  0  0  0  0  0  0  0
    1.9969    0.7177   -1.6999 H   0  0  0  0  0  0  0  0  0  0  0  0
    3.5405    0.2044   -0.9165 H   0  0  0  0  0  0  0  0  0  0  0  0
    2.5648   -1.0146   -1.8619 H   0  0  0  0  0  0  0  0  0  0  0  0
    1.8836   -1.5732    0.2300 H   0  0  0  0  0  0  0  0  0  0  0  0
    0.0278    0.7528   -0.3268 H   0  0  0  0  0  0  0  0  0  0  0  0
   -2.8038   -1.7338   -0.2056 H   0  0  0  0  0  0  0  0  0  0  0  0
   -1.8016    1.0548    0.7307 H   0  0  0  0  0  0  0  0  0  0  0  0
   -3.5795    0.6055    0.4636 H   0  0  0  0  0  0  0  0  0  0  0  0
   -1.4399    0.6831   -1.7418 H   0  0  0  0  0  0  0  0  0  0  0  0
   -3.4366    0.6871   -2.9139 H   0  0  0  0  0  0  0  0  0  0  0  0
   -4.3498    0.0744   -1.6584 H   0  0  0  0  0  0  0  0  0  0  0  0
    0.7892   -0.0085    2.7196 H   0  0  0  0  0  0  0  0  0  0  0  0
  1  2  1  0
  2  3  1  0
  3  4  1  0
  4  5  2  0
  4  6  1  0
  6  7  1  0
  7  8  1  0
  8  9  1  0
  2 10  1  0
 10 11  2  0
 11 12  1  0
 12 13  2  0
 13 14  1  0
  8  6  1  0
 14 10  1  0
  1 15  1  0
  1 16  1  0
  1 17  1  0
  2 18  1  1
  3 19  1  0
  6 20  1  6
  7 21  1  0
  7 22  1  0
  8 23  1  6
  9 24  1  0
  9 25  1  0
 14 26  1  0
M  END
$$$$

     RDKit          3D

 26 27  0  0  0  0  0  0  0  0999 V2000
    2.3549   -1.4975   -1.2532 C   0  0  0  0  0  0  0  0  0  0  0  0
    1.6723   -0.7041   -0.1601 C   0  0  2  0  0  0  0  0  0  0  0  0
    0.4711   -0.0507   -0.6703 N   0  0  0  0  0  0  0  0  0  0  0  0
   -0.7996   -0.3873   -0.1380 C   0  0  0  0  0  0  0  0  0  0  0  0
   -0.8481   -1.2607    0.7799 O   0  0  0  0  0  0  0  0  0  0  0  0
   -2.0707    0.2303   -0.6009 C   0  0  1  0  0  0  0  0  0  0  0  0
   -3.2698   -0.6609   -0.6488 C   0  0  0  0  0  0  0  0  0  0  0  0
   -3.1367    0.4521    0.3781 C   0  0  2  0  0  0  0  0  0  0  0  0
   -4.0957    1.5065    0.2903 N   0  0  0  0  0  0  0  0  0  0  0  0
    2.5947    0.2954    0.4309 C   0  0  0  0  0  0  0  0  0  0  0  0
    2.1431    1.2766    1.2610 N   0  0  0  0  0  0  0  0  0  0  0  0
    3.1760    1.9910    1.6144 N   0  0  0  0  0  0  0  0  0  0  0  0
    4.2590    1.4919    1.0349 N   0  0  0  0  0  0  0  0  0  0  0  0
    3.9105    0.4407    0.2990 N   0  0  0  0  0  0  0  0  0  0  0  0
    2.7775   -0.8681   -2.0366 H   0  0  0  0  0  0  0  0  0  0  0  0
    1.5960   -2.1725   -1.7064 H   0  0  0  0  0  0  0  0  0  0  0  0
    3.1442   -2.1166   -0.7990 H   0  0  0  0  0  0  0  0  0  0  0  0
    1.3853   -1.4243    0.6322 H   0  0  0  0  0  0  0  0  0  0  0  0
    0.5428    0.6620   -1.4239 H   0  0  0  0  0  0  0  0  0  0  0  0
   -1.9464    0.9920   -1.4131 H   0  0  0  0  0  0  0  0  0  0  0  0
   -3.9478   -0.5145   -1.4965 H   0  0  0  0  0  0  0  0  0  0  0  0
   -3.1813   -1.7009   -0.3134 H   0  0  0  0  0  0  0  0  0  0  0  0
   -2.9313    0.0938    1.4285 H   0  0  0  0  0  0  0  0  0  0  0  0
   -4.4356    1.8723    1.1933 H   0  0  0  0  0  0  0  0  0  0  0  0
   -3.8958    2.2207   -0.4243 H   0  0  0  0  0  0  0  0  0  0  0  0
    4.5315   -0.1672   -0.2782 H   0  0  0  0  0  0  0  0  0  0  0  0
  1  2  1  0
  2  3  1  0
  3  4  1  0
  4  5  2  0
  4  6  1  0
  6  7  1  0
  7  8  1  0
  8  9  1  0
  2 10  1  0
 10 11  2  0
 11 12  1  0
 12 13  2  0
 13 14  1  0
  8  6  1  0
 14 10  1  0
  1 15  1  0
  1 16  1  0
  1 17  1  0
  2 18  1  1
  3 19  1  0
  6 20  1  6
  7 21  1  0
  7 22  1  0
  8 23  1  1
  9 24  1  0
  9 25  1  0
 14 26  1  0
M  END
$$$$

     RDKit          3D

 26 27  0  0  0  0  0  0  0  0999 V2000
   -2.1396    1.7998    0.1411 C   0  0  0  0  0  0  0  0  0  0  0  0
   -1.5793    0.4354    0.4633 C   0  0  2  0  0  0  0  0  0  0  0  0
   -0.2360    0.2493   -0.0100 N   0  0  0  0  0  0  0  0  0  0  0  0
    0.7958   -0.0404    0.9408 C   0  0  0  0  0  0  0  0  0  0  0  0
    0.4716   -0.1181    2.1538 O   0  0  0  0  0  0  0  0  0  0  0  0
    2.1971   -0.2473    0.5614 C   0  0  1  0  0  0  0  0  0  0  0  0
    2.4076   -0.9742   -0.7379 C   0  0  0  0  0  0  0  0  0  0  0  0
    2.8106    0.4621   -0.5838 C   0  0  2  0  0  0  0  0  0  0  0  0
    4.2375    0.7023   -0.5573 N   0  0  0  0  0  0  0  0  0  0  0  0
   -2.4959   -0.5995   -0.1313 C   0  0  0  0  0  0  0  0  0  0  0  0
   -2.5344   -0.9825   -1.4133 N   0  0  0  0  0  0  0  0  0  0  0  0
   -3.4890   -1.9202   -1.5135 N   0  0  0  0  0  0  0  0  0  0  0  0
   -4.0310   -2.1156   -0.3229 N   0  0  0  0  0  0  0  0  0  0  0  0
   -3.4309   -1.3128    0.5303 N   0  0  0  0  0  0  0  0  0  0  0  0
   -1.3734    2.5621    0.3643 H   0  0  0  0  0  0  0  0  0  0  0  0
   -2.9936    1.9659    0.8288 H   0  0  0  0  0  0  0  0  0  0  0  0
   -2.5403    1.8616   -0.8892 H   0  0  0  0  0  0  0  0  0  0  0  0
   -1.6218    0.3204    1.5636 H   0  0  0  0  0  0  0  0  0  0  0  0
    0.0603    0.3066   -0.9949 H   0  0  0  0  0  0  0  0  0  0  0  0
    2.8872   -0.4639    1.4004 H   0  0  0  0  0  0  0  0  0  0  0  0
    1.5239   -1.2596   -1.3276 H   0  0  0  0  0  0  0  0  0  0  0  0
    3.1977   -1.7707   -0.6965 H   0  0  0  0  0  0  0  0  0  0  0  0
    2.2470    1.2008   -1.1869 H   0  0  0  0  0  0  0  0  0  0  0  0
    4.7502   -0.1903   -0.4139 H   0  0  0  0  0  0  0  0  0  0  0  0
    4.4886    1.3319    0.2632 H   0  0  0  0  0  0  0  0  0  0  0  0
   -3.6100   -1.2034    1.5680 H   0  0  0  0  0  0  0  0  0  0  0  0
  1  2  1  0
  2  3  1  0
  3  4  1  0
  4  5  2  0
  4  6  1  0
  6  7  1  0
  7  8  1  0
  8  9  1  0
  2 10  1  0
 10 11  2  0
 11 12  1  0
 12 13  2  0
 13 14  1  0
  8  6  1  0
 14 10  1  0
  1 15  1  0
  1 16  1  0
  1 17  1  0
  2 18  1  1
  3 19  1  0
  6 20  1  1
  7 21  1  0
  7 22  1  0
  8 23  1  6
  9 24  1  0
  9 25  1  0
 14 26  1  0
M  END
$$$$

     RDKit          3D

 26 27  0  0  0  0  0  0  0  0999 V2000
    2.7274   -1.1478   -0.5230 C   0  0  0  0  0  0  0  0  0  0  0  0
    1.8216   -0.2042    0.2762 C   0  0  2  0  0  0  0  0  0  0  0  0
    0.5398   -0.2127   -0.3747 N   0  0  0  0  0  0  0  0  0  0  0  0
   -0.6627   -0.5860    0.2770 C   0  0  0  0  0  0  0  0  0  0  0  0
   -0.6173   -0.9321    1.4975 O   0  0  0  0  0  0  0  0  0  0  0  0
   -1.9440   -0.5645   -0.4773 C   0  0  1  0  0  0  0  0  0  0  0  0
   -2.9415   -1.6423   -0.1248 C   0  0  0  0  0  0  0  0  0  0  0  0
   -3.1922   -0.1710    0.2682 C   0  0  2  0  0  0  0  0  0  0  0  0
   -4.2775    0.4741   -0.4594 N   0  0  0  0  0  0  0  0  0  0  0  0
    2.3807    1.1832    0.2060 C   0  0  0  0  0  0  0  0  0  0  0  0
    2.3938    1.9848   -0.8728 N   0  0  0  0  0  0  0  0  0  0  0  0
    2.9764    3.1082   -0.4944 N   0  0  0  0  0  0  0  0  0  0  0  0
    3.3305    3.0465    0.7783 N   0  0  0  0  0  0  0  0  0  0  0  0
    2.9631    1.8559    1.2152 N   0  0  0  0  0  0  0  0  0  0  0  0
    2.7558   -2.1501   -0.0687 H   0  0  0  0  0  0  0  0  0  0  0  0
    3.7383   -0.6769   -0.5029 H   0  0  0  0  0  0  0  0  0  0  0  0
    2.3842   -1.2033   -1.5757 H   0  0  0  0  0  0  0  0  0  0  0  0
    1.7843   -0.5123    1.3214 H   0  0  0  0  0  0  0  0  0  0  0  0
    0.4963    0.0707   -1.3773 H   0  0  0  0  0  0  0  0  0  0  0  0
   -1.8796   -0.2483   -1.5358 H   0  0  0  0  0  0  0  0  0  0  0  0
   -3.5701   -2.0537   -0.9501 H   0  0  0  0  0  0  0  0  0  0  0  0
   -2.6661   -2.3300    0.7117 H   0  0  0  0  0  0  0  0  0  0  0  0
   -3.1041    0.0708    1.3435 H   0  0  0  0  0  0  0  0  0  0  0  0
   -4.4817   -0.0565   -1.3401 H   0  0  0  0  0  0  0  0  0  0  0  0
   -4.0277    1.4620   -0.7332 H   0  0  0  0  0  0  0  0  0  0  0  0
    3.0723    1.4355    2.1696 H   0  0  0  0  0  0  0  0  0  0  0  0
  1  2  1  0
  2  3  1  0
  3  4  1  0
  4  5  2  0
  4  6  1  0
  6  7  1  0
  7  8  1  0
  8  9  1  0
  2 10  1  0
 10 11  2  0
 11 12  1  0
 12 13  2  0
 13 14  1  0
  8  6  1  0
 14 10  1  0
  1 15  1  0
  1 16  1  0
  1 17  1  0
  2 18  1  1
  3 19  1  0
  6 20  1  6
  7 21  1  0
  7 22  1  0
  8 23  1  1
  9 24  1  0
  9 25  1  0
 14 26  1  0
M  END
$$$$
