
     RDKit          3D

 16 16  0  0  0  0  0  0  0  0999 V2000
   -1.0603   -2.0080   -1.3635 N   0  0  0  0  0  0  0  0  0  0  0  0
   -1.0639   -1.2954   -0.5228 N   0  0  0  0  0  4  0  0  0  0  0  0
   -1.0589   -0.3746    0.5305 C   0  0  2  0  0  0  0  0  0  0  0  0
   -1.8654    0.7927    0.1491 N   0  0  0  0  0  0  0  0  0  0  0  0
   -0.9713    1.6506   -0.5406 C   0  0  0  0  0  0  0  0  0  0  0  0
    0.2500    1.3454   -0.2467 N   0  0  0  0  0  0  0  0  0  0  0  0
    0.3047    0.2527    0.6694 C   0  0  2  0  0  0  0  0  0  0  0  0
    1.4057   -0.6734    0.4387 C   0  0  0  0  0  0  0  0  0  0  0  0
    2.3336   -0.4932   -0.6075 N   0  0  0  0  0  0  0  0  0  0  0  0
    1.5445   -1.6680    1.1877 O   0  0  0  0  0  0  0  0  0  0  0  0
   -1.4141   -0.7804    1.4856 H   0  0  0  0  0  0  0  0  0  0  0  0
   -2.8560    0.9946    0.3175 H   0  0  0  0  0  0  0  0  0  0  0  0
   -1.2461    2.4452   -1.2143 H   0  0  0  0  0  0  0  0  0  0  0  0
    0.3482    0.6847    1.7013 H   0  0  0  0  0  0  0  0  0  0  0  0
    2.6224    0.4537   -0.9032 H   0  0  0  0  0  0  0  0  0  0  0  0
    2.7269   -1.3267   -1.0813 H   0  0  0  0  0  0  0  0  0  0  0  0
  1  2  3  0
  2  3  1  0
  3  4  1  0
  4  5  1  0
  5  6  2  0
  6  7  1  0
  7  8  1  0
  8  9  1  0
  8 10  2  0
  7  3  1  0
  3 11  1  1
  4 12  1  0
  5 13  1  0
  7 14  1  1
  9 15  1  0
  9 16  1  0
M  CHG  1   2   1
M  END
$$$$

     RDKit          3D

 16 16  0  0  0  0  0  0  0  0999 V2000
   -1.4996    1.1554    1.8352 N   0  0  0  0  0  0  0  0  0  0  0  0
   -0.9002    1.0490    0.8967 N   0  0  0  0  0  4  0  0  0  0  0  0
   -0.1329    0.9305   -0.2682 C   0  0  2  0  0  0  0  0  0  0  0  0
   -0.9518    1.0042   -1.4658 N   0  0  0  0  0  0  0  0  0  0  0  0
   -1.5560   -0.2773   -1.5227 C   0  0  0  0  0  0  0  0  0  0  0  0
   -0.8142   -1.1480   -0.9361 N   0  0  0  0  0  0  0  0  0  0  0  0
    0.3656   -0.4888   -0.4379 C   0  0  2  0  0  0  0  0  0  0  0  0
    0.6892   -1.1133    0.8597 C   0  0  0  0  0  0  0  0  0  0  0  0
    1.8490   -0.6240    1.5699 N   0  0  0  0  0  0  0  0  0  0  0  0
    0.0705   -2.0282    1.4263 O   0  0  0  0  0  0  0  0  0  0  0  0
    0.6714    1.6528   -0.3640 H   0  0  0  0  0  0  0  0  0  0  0  0
   -1.0613    1.7782   -2.0989 H   0  0  0  0  0  0  0  0  0  0  0  0
   -2.5176   -0.4662   -2.0052 H   0  0  0  0  0  0  0  0  0  0  0  0
    1.2118   -0.5452   -1.1555 H   0  0  0  0  0  0  0  0  0  0  0  0
    1.8287   -0.4329    2.5939 H   0  0  0  0  0  0  0  0  0  0  0  0
    2.7473   -0.4464    1.0727 H   0  0  0  0  0  0  0  0  0  0  0  0
  1  2  3  0
  2  3  1  0
  3  4  1  0
  4  5  1  0
  5  6  2  0
  6  7  1  0
  7  8  1  0
  8  9  1  0
  8 10  2  0
  7  3  1  0
  3 11  1  6
  4 12  1  0
  5 13  1  0
  7 14  1  6
  9 15  1  0
  9 16  1  0
M  CHG  1   2   1
M  END
$$$$

     RDKit          3D

 16 16  0  0  0  0  0  0  0  0999 V2000
   -0.5973   -2.1458   -1.3143 N   0  0  0  0  0  0  0  0  0  0  0  0
   -0.5093   -1.4724   -0.4371 N   0  0  0  0  0  4  0  0  0  0  0  0
   -0.4027   -0.6042    0.6559 C   0  0  2  0  0  0  0  0  0  0  0  0
   -1.6985   -0.1132    1.0923 N   0  0  0  0  0  0  0  0  0  0  0  0
   -1.9467    1.0134    0.2645 C   0  0  0  0  0  0  0  0  0  0  0  0
   -0.8553    1.4785   -0.2149 N   0  0  0  0  0  0  0  0  0  0  0  0
    0.2506    0.6935    0.2558 C   0  0  2  0  0  0  0  0  0  0  0  0
    1.1752    0.5022   -0.9009 C   0  0  0  0  0  0  0  0  0  0  0  0
    2.3519   -0.2448   -0.6909 N   0  0  0  0  0  0  0  0  0  0  0  0
    0.9641    0.9679   -2.0466 O   0  0  0  0  0  0  0  0  0  0  0  0
    0.1440   -1.0271    1.5057 H   0  0  0  0  0  0  0  0  0  0  0  0
   -2.2542   -0.5454    1.8468 H   0  0  0  0  0  0  0  0  0  0  0  0
   -2.9726    1.3863    0.0997 H   0  0  0  0  0  0  0  0  0  0  0  0
    0.7863    1.1723    1.1062 H   0  0  0  0  0  0  0  0  0  0  0  0
    2.2789   -1.2501   -0.4601 H   0  0  0  0  0  0  0  0  0  0  0  0
    3.2856    0.1888   -0.7620 H   0  0  0  0  0  0  0  0  0  0  0  0
  1  2  3  0
  2  3  1  0
  3  4  1  0
  4  5  1  0
  5  6  2  0
  6  7  1  0
  7  8  1  0
  8  9  1  0
  8 10  2  0
  7  3  1  0
  3 11  1  1
  4 12  1  0
  5 13  1  0
  7 14  1  1
  9 15  1  0
  9 16  1  0
M  CHG  1   2   1
M  END
$$$$

     RDKit          3D

 16 16  0  0  0  0  0  0  0  0999 V2000
   -0.7992    2.0927    1.5337 N   0  0  0  0  0  0  0  0  0  0  0  0
   -0.9181    1.3826    0.6718 N   0  0  0  0  0  4  0  0  0  0  0  0
   -1.0499    0.5010   -0.4132 C   0  0  2  0  0  0  0  0  0  0  0  0
   -1.9154   -0.6208   -0.0968 N   0  0  0  0  0  0  0  0  0  0  0  0
   -1.0365   -1.6042    0.4335 C   0  0  0  0  0  0  0  0  0  0  0  0
    0.1672   -1.3904    0.0880 N   0  0  0  0  0  0  0  0  0  0  0  0
    0.2439   -0.2078   -0.7372 C   0  0  2  0  0  0  0  0  0  0  0  0
    1.4306    0.5910   -0.4679 C   0  0  0  0  0  0  0  0  0  0  0  0
    2.3536    0.1698    0.5182 N   0  0  0  0  0  0  0  0  0  0  0  0
    1.6443    1.6444   -1.0972 O   0  0  0  0  0  0  0  0  0  0  0  0
   -1.4319    1.0228   -1.3130 H   0  0  0  0  0  0  0  0  0  0  0  0
   -2.9366   -0.7408   -0.2063 H   0  0  0  0  0  0  0  0  0  0  0  0
   -1.3472   -2.4360    1.0556 H   0  0  0  0  0  0  0  0  0  0  0  0
    0.1885   -0.5091   -1.8041 H   0  0  0  0  0  0  0  0  0  0  0  0
    2.6003    0.8574    1.2695 H   0  0  0  0  0  0  0  0  0  0  0  0
    2.8063   -0.7524    0.5656 H   0  0  0  0  0  0  0  0  0  0  0  0
  1  2  3  0
  2  3  1  0
  3  4  1  0
  4  5  1  0
  5  6  2  0
  6  7  1  0
  7  8  1  0
  8  9  1  0
  8 10  2  0
  7  3  1  0
  3 11  1  6
  4 12  1  0
  5 13  1  0
  7 14  1  6
  9 15  1  0
  9 16  1  0
M  CHG  1   2   1
M  END
$$$$

     RDKit          3D

 16 16  0  0  0  0  0  0  0  0999 V2000
   -0.2780   -2.6370   -0.8645 N   0  0  0  0  0  0  0  0  0  0  0  0
   -0.6790   -1.6259   -0.6307 N   0  0  0  0  0  4  0  0  0  0  0  0
   -1.1598   -0.3635   -0.3562 C   0  0  2  0  0  0  0  0  0  0  0  0
   -1.1681    0.4926   -1.5434 N   0  0  0  0  0  0  0  0  0  0  0  0
    0.0437    1.2215   -1.5005 C   0  0  0  0  0  0  0  0  0  0  0  0
    0.5462    1.2041   -0.3294 N   0  0  0  0  0  0  0  0  0  0  0  0
   -0.2894    0.4488    0.5531 C   0  0  2  0  0  0  0  0  0  0  0  0
    0.5082   -0.3080    1.4971 C   0  0  0  0  0  0  0  0  0  0  0  0
    1.9202   -0.2072    1.4270 N   0  0  0  0  0  0  0  0  0  0  0  0
    0.0208   -1.0526    2.3792 O   0  0  0  0  0  0  0  0  0  0  0  0
   -2.1829   -0.3455    0.0462 H   0  0  0  0  0  0  0  0  0  0  0  0
   -1.8999    0.5602   -2.2691 H   0  0  0  0  0  0  0  0  0  0  0  0
    0.5219    1.7473   -2.3435 H   0  0  0  0  0  0  0  0  0  0  0  0
   -0.8851    1.1943    1.1512 H   0  0  0  0  0  0  0  0  0  0  0  0
    2.5482   -0.4047    2.2443 H   0  0  0  0  0  0  0  0  0  0  0  0
    2.4327    0.0757    0.5390 H   0  0  0  0  0  0  0  0  0  0  0  0
  1  2  3  0
  2  3  1  0
  3  4  1  0
  4  5  1  0
  5  6  2  0
  6  7  1  0
  7  8  1  0
  8  9  1  0
  8 10  2  0
  7  3  1  0
  3 11  1  1
  4 12  1  0
  5 13  1  0
  7 14  1  1
  9 15  1  0
  9 16  1  0
M  CHG  1   2   1
M  END
$$$$

     RDKit          3D

 16 16  0  0  0  0  0  0  0  0999 V2000
   -1.7283    2.5169    0.0308 N   0  0  0  0  0  0  0  0  0  0  0  0
   -1.5413    1.4333   -0.1060 N   0  0  0  0  0  4  0  0  0  0  0  0
   -1.2857    0.0802   -0.2760 C   0  0  2  0  0  0  0  0  0  0  0  0
   -1.1330   -0.6242    0.9829 N   0  0  0  0  0  0  0  0  0  0  0  0
   -0.2732   -1.7232    0.7105 C   0  0  0  0  0  0  0  0  0  0  0  0
    0.3943   -1.4884   -0.3581 N   0  0  0  0  0  0  0  0  0  0  0  0
    0.0526   -0.2006   -0.9205 C   0  0  2  0  0  0  0  0  0  0  0  0
    1.0729    0.8104   -0.6007 C   0  0  0  0  0  0  0  0  0  0  0  0
    2.1985    0.4191    0.1734 N   0  0  0  0  0  0  0  0  0  0  0  0
    0.9867    1.9943   -0.9826 O   0  0  0  0  0  0  0  0  0  0  0  0
   -2.0891   -0.4346   -0.8558 H   0  0  0  0  0  0  0  0  0  0  0  0
   -1.5594   -0.3860    1.9062 H   0  0  0  0  0  0  0  0  0  0  0  0
   -0.2062   -2.6305    1.3362 H   0  0  0  0  0  0  0  0  0  0  0  0
   -0.1154   -0.3195   -1.9923 H   0  0  0  0  0  0  0  0  0  0  0  0
    3.0702    0.0321   -0.2464 H   0  0  0  0  0  0  0  0  0  0  0  0
    2.1563    0.5207    1.1983 H   0  0  0  0  0  0  0  0  0  0  0  0
  1  2  3  0
  2  3  1  0
  3  4  1  0
  4  5  1  0
  5  6  2  0
  6  7  1  0
  7  8  1  0
  8  9  1  0
  8 10  2  0
  7  3  1  0
  3 11  1  6
  4 12  1  0
  5 13  1  0
  7 14  1  6
  9 15  1  0
  9 16  1  0
M  CHG  1   2   1
M  END
$$$$

     RDKit          3D

 16 16  0  0  0  0  0  0  0  0999 V2000
   -1.0452    2.3379    0.7878 N   0  0  0  0  0  0  0  0  0  0  0  0
   -1.0560    1.3893    0.1668 N   0  0  0  0  0  4  0  0  0  0  0  0
   -1.0515    0.2051   -0.5885 C   0  0  2  0  0  0  0  0  0  0  0  0
   -1.8538   -0.7667    0.1200 N   0  0  0  0  0  0  0  0  0  0  0  0
   -0.9741   -1.2837    1.1064 C   0  0  0  0  0  0  0  0  0  0  0  0
    0.2515   -1.1296    0.7397 N   0  0  0  0  0  0  0  0  0  0  0  0
    0.2909   -0.4852   -0.5486 C   0  0  2  0  0  0  0  0  0  0  0  0
    1.4165    0.4184   -0.7256 C   0  0  0  0  0  0  0  0  0  0  0  0
    2.3457    0.5996    0.3099 N   0  0  0  0  0  0  0  0  0  0  0  0
    1.5662    1.0398   -1.7981 O   0  0  0  0  0  0  0  0  0  0  0  0
   -1.4093    0.3854   -1.6174 H   0  0  0  0  0  0  0  0  0  0  0  0
   -2.8344   -1.0048   -0.0720 H   0  0  0  0  0  0  0  0  0  0  0  0
   -1.2652   -1.7487    2.0447 H   0  0  0  0  0  0  0  0  0  0  0  0
    0.2439   -1.2966   -1.3119 H   0  0  0  0  0  0  0  0  0  0  0  0
    2.2764    1.4276    0.9192 H   0  0  0  0  0  0  0  0  0  0  0  0
    3.0983   -0.0879    0.4677 H   0  0  0  0  0  0  0  0  0  0  0  0
  1  2  3  0
  2  3  1  0
  3  4  1  0
  4  5  1  0
  5  6  2  0
  6  7  1  0
  7  8  1  0
  8  9  1  0
  8 10  2  0
  7  3  1  0
  3 11  1  6
  4 12  1  0
  5 13  1  0
  7 14  1  6
  9 15  1  0
  9 16  1  0
M  CHG  1   2   1
M  END
$$$$

     RDKit          3D

 16 16  0  0  0  0  0  0  0  0999 V2000
    1.6803    0.9872    1.9524 N   0  0  0  0  0  0  0  0  0  0  0  0
    1.3086    0.8597    0.9100 N   0  0  0  0  0  4  0  0  0  0  0  0
    0.8473    0.6786   -0.3756 C   0  0  2  0  0  0  0  0  0  0  0  0
   -0.3627    1.4714   -0.6549 N   0  0  0  0  0  0  0  0  0  0  0  0
   -0.9046    0.7928   -1.8042 C   0  0  0  0  0  0  0  0  0  0  0  0
   -0.5511   -0.4357   -1.7951 N   0  0  0  0  0  0  0  0  0  0  0  0
    0.2587   -0.6884   -0.6361 C   0  0  2  0  0  0  0  0  0  0  0  0
   -0.6656   -1.0842    0.4734 C   0  0  0  0  0  0  0  0  0  0  0  0
   -0.1702   -1.4035    1.7672 N   0  0  0  0  0  0  0  0  0  0  0  0
   -1.9117   -1.1511    0.3111 O   0  0  0  0  0  0  0  0  0  0  0  0
    1.5889    0.8893   -1.1614 H   0  0  0  0  0  0  0  0  0  0  0  0
   -0.6916    2.2882   -0.1352 H   0  0  0  0  0  0  0  0  0  0  0  0
   -1.5285    1.3080   -2.5506 H   0  0  0  0  0  0  0  0  0  0  0  0
    1.0387   -1.4552   -0.8063 H   0  0  0  0  0  0  0  0  0  0  0  0
    0.8132   -1.7369    1.8850 H   0  0  0  0  0  0  0  0  0  0  0  0
   -0.7497   -1.3202    2.6203 H   0  0  0  0  0  0  0  0  0  0  0  0
  1  2  3  0
  2  3  1  0
  3  4  1  0
  4  5  1  0
  5  6  2  0
  6  7  1  0
  7  8  1  0
  8  9  1  0
  8 10  2  0
  7  3  1  0
  3 11  1  6
  4 12  1  0
  5 13  1  0
  7 14  1  6
  9 15  1  0
  9 16  1  0
M  CHG  1   2   1
M  END
$$$$
