
     RDKit          3D

 28 29  0  0  0  0  0  0  0  0999 V2000
   -4.0205   -0.1185   -0.3248 C   0  0  0  0  0  0  0  0  0  0  0  0
   -2.6661    0.1527    0.1402 N   0  0  0  0  0  0  0  0  0  0  0  0
   -2.1203   -0.0285    1.4643 C   0  0  0  0  0  0  0  0  0  0  0  0
   -0.6653   -0.2593    1.2611 C   0  0  0  0  0  0  0  0  0  0  0  0
   -0.3187    0.4357   -0.0156 C   0  0  1  0  0  0  0  0  0  0  0  0
    0.5722   -0.4204   -0.7868 N   0  0  0  0  0  0  0  0  0  0  0  0
    1.7913   -0.5428   -0.0397 C   0  0  2  0  0  0  0  0  0  0  0  0
    2.4446    0.8249   -0.0059 C   0  0  0  0  0  0  0  0  0  0  0  0
    3.7457    0.5707   -0.6111 N   0  0  0  0  0  0  0  0  0  0  0  0
    3.5387   -0.4862   -1.4494 O   0  0  0  0  0  0  0  0  0  0  0  0
    2.8431   -1.4011   -0.6553 C   0  0  0  0  0  0  0  0  0  0  0  0
   -1.6221    0.6611   -0.6733 C   0  0  0  0  0  0  0  0  0  0  0  0
   -1.8330    1.2220   -1.7957 O   0  0  0  0  0  0  0  0  0  0  0  0
   -4.5815   -0.6428    0.4552 H   0  0  0  0  0  0  0  0  0  0  0  0
   -4.0342   -0.7214   -1.2407 H   0  0  0  0  0  0  0  0  0  0  0  0
   -4.4966    0.8583   -0.5964 H   0  0  0  0  0  0  0  0  0  0  0  0
   -2.2957    0.9014    2.0650 H   0  0  0  0  0  0  0  0  0  0  0  0
   -2.6181   -0.8943    1.9762 H   0  0  0  0  0  0  0  0  0  0  0  0
   -0.0225    0.0903    2.0985 H   0  0  0  0  0  0  0  0  0  0  0  0
   -0.4774   -1.3542    1.1216 H   0  0  0  0  0  0  0  0  0  0  0  0
    0.1504    1.4067    0.2588 H   0  0  0  0  0  0  0  0  0  0  0  0
    0.7299   -0.0251   -1.7305 H   0  0  0  0  0  0  0  0  0  0  0  0
    1.5781   -0.8576    1.0099 H   0  0  0  0  0  0  0  0  0  0  0  0
    2.5888    1.1826    1.0134 H   0  0  0  0  0  0  0  0  0  0  0  0
    1.8821    1.5623   -0.6464 H   0  0  0  0  0  0  0  0  0  0  0  0
    3.9378    1.4052   -1.2277 H   0  0  0  0  0  0  0  0  0  0  0  0
    2.4485   -2.2525   -1.2088 H   0  0  0  0  0  0  0  0  0  0  0  0
    3.5210   -1.7981    0.1440 H   0  0  0  0  0  0  0  0  0  0  0  0
  1  2  1  0
  2  3  1  0
  3  4  1  0
  4  5  1  0
  5  6  1  0
  6  7  1  0
  7  8  1  0
  8  9  1  0
  9 10  1  0
 10 11  1  0
  5 12  1  0
 12 13  2  0
 12  2  1  0
 11  7  1  0
  1 14  1  0
  1 15  1  0
  1 16  1  0
  3 17  1  0
  3 18  1  0
  4 19  1  0
  4 20  1  0
  5 21  1  1
  6 22  1  0
  7 23  1  1
  8 24  1  0
  8 25  1  0
  9 26  1  0
 11 27  1  0
 11 28  1  0
M  END
$$$$

     RDKit          3D

 28 29  0  0  0  0  0  0  0  0999 V2000
   -3.7317    0.6532    0.2268 C   0  0  0  0  0  0  0  0  0  0  0  0
   -2.3527    0.2245    0.0641 N   0  0  0  0  0  0  0  0  0  0  0  0
   -1.6169    0.3395   -1.1769 C   0  0  0  0  0  0  0  0  0  0  0  0
   -0.7059   -0.8783   -1.1388 C   0  0  0  0  0  0  0  0  0  0  0  0
   -0.4463   -1.1891    0.2795 C   0  0  1  0  0  0  0  0  0  0  0  0
    0.8313   -1.0946    0.8224 N   0  0  0  0  0  0  0  0  0  0  0  0
    1.5572    0.0818    0.9162 C   0  0  2  0  0  0  0  0  0  0  0  0
    1.9363    0.6439   -0.4371 C   0  0  0  0  0  0  0  0  0  0  0  0
    3.1897    1.3562   -0.1033 N   0  0  0  0  0  0  0  0  0  0  0  0
    3.8512    0.3508    0.5198 O   0  0  0  0  0  0  0  0  0  0  0  0
    2.9739   -0.2294    1.4384 C   0  0  0  0  0  0  0  0  0  0  0  0
   -1.4735   -0.3561    0.9951 C   0  0  0  0  0  0  0  0  0  0  0  0
   -1.5132   -0.2209    2.2267 O   0  0  0  0  0  0  0  0  0  0  0  0
   -4.2324    0.1460    1.0697 H   0  0  0  0  0  0  0  0  0  0  0  0
   -4.3176    0.4336   -0.6907 H   0  0  0  0  0  0  0  0  0  0  0  0
   -3.7834    1.7551    0.3743 H   0  0  0  0  0  0  0  0  0  0  0  0
   -1.0955    1.2908   -1.2828 H   0  0  0  0  0  0  0  0  0  0  0  0
   -2.3177    0.2824   -2.0475 H   0  0  0  0  0  0  0  0  0  0  0  0
   -1.3677   -1.6975   -1.5974 H   0  0  0  0  0  0  0  0  0  0  0  0
    0.1573   -0.7660   -1.7922 H   0  0  0  0  0  0  0  0  0  0  0  0
   -0.7738   -2.2831    0.4290 H   0  0  0  0  0  0  0  0  0  0  0  0
    1.3454   -1.9793    0.7646 H   0  0  0  0  0  0  0  0  0  0  0  0
    1.0985    0.8780    1.5552 H   0  0  0  0  0  0  0  0  0  0  0  0
    1.2302    1.3327   -0.8754 H   0  0  0  0  0  0  0  0  0  0  0  0
    2.2753   -0.1509   -1.1331 H   0  0  0  0  0  0  0  0  0  0  0  0
    3.0146    2.1751    0.5004 H   0  0  0  0  0  0  0  0  0  0  0  0
    3.1744   -1.3196    1.4379 H   0  0  0  0  0  0  0  0  0  0  0  0
    3.0932    0.2213    2.4547 H   0  0  0  0  0  0  0  0  0  0  0  0
  1  2  1  0
  2  3  1  0
  3  4  1  0
  4  5  1  0
  5  6  1  0
  6  7  1  0
  7  8  1  0
  8  9  1  0
  9 10  1  0
 10 11  1  0
  5 12  1  0
 12 13  2  0
 12  2  1  0
 11  7  1  0
  1 14  1  0
  1 15  1  0
  1 16  1  0
  3 17  1  0
  3 18  1  0
  4 19  1  0
  4 20  1  0
  5 21  1  6
  6 22  1  0
  7 23  1  1
  8 24  1  0
  8 25  1  0
  9 26  1  0
 11 27  1  0
 11 28  1  0
M  END
$$$$

     RDKit          3D

 28 29  0  0  0  0  0  0  0  0999 V2000
    3.5969    1.2421   -0.6954 C   0  0  0  0  0  0  0  0  0  0  0  0
    2.4735    0.4110   -0.3455 N   0  0  0  0  0  0  0  0  0  0  0  0
    2.4870   -0.7298    0.5359 C   0  0  0  0  0  0  0  0  0  0  0  0
    1.3145   -1.5688    0.0340 C   0  0  0  0  0  0  0  0  0  0  0  0
    0.3196   -0.4627   -0.3430 C   0  0  1  0  0  0  0  0  0  0  0  0
   -0.5289   -0.1519    0.7830 N   0  0  0  0  0  0  0  0  0  0  0  0
   -1.8790   -0.3552    0.4213 C   0  0  2  0  0  0  0  0  0  0  0  0
   -2.3603    0.6556   -0.6325 C   0  0  0  0  0  0  0  0  0  0  0  0
   -3.7951    0.4088   -0.4984 N   0  0  0  0  0  0  0  0  0  0  0  0
   -4.0628    0.2247    0.7894 O   0  0  0  0  0  0  0  0  0  0  0  0
   -2.9174   -0.1565    1.4622 C   0  0  0  0  0  0  0  0  0  0  0  0
    1.1545    0.6204   -0.8434 C   0  0  0  0  0  0  0  0  0  0  0  0
    0.7441    1.5519   -1.5652 O   0  0  0  0  0  0  0  0  0  0  0  0
    3.8269    1.9237    0.1604 H   0  0  0  0  0  0  0  0  0  0  0  0
    3.3679    1.8414   -1.6105 H   0  0  0  0  0  0  0  0  0  0  0  0
    4.5011    0.6235   -0.9240 H   0  0  0  0  0  0  0  0  0  0  0  0
    2.2887   -0.3953    1.5739 H   0  0  0  0  0  0  0  0  0  0  0  0
    3.4403   -1.2591    0.4668 H   0  0  0  0  0  0  0  0  0  0  0  0
    1.6370   -2.0766   -0.8732 H   0  0  0  0  0  0  0  0  0  0  0  0
    0.9085   -2.2460    0.7953 H   0  0  0  0  0  0  0  0  0  0  0  0
   -0.2784   -0.9164   -1.1911 H   0  0  0  0  0  0  0  0  0  0  0  0
   -0.3677    0.8191    1.1331 H   0  0  0  0  0  0  0  0  0  0  0  0
   -2.0576   -1.3545   -0.0358 H   0  0  0  0  0  0  0  0  0  0  0  0
   -2.1790    1.6943   -0.2574 H   0  0  0  0  0  0  0  0  0  0  0  0
   -1.9831    0.4699   -1.6286 H   0  0  0  0  0  0  0  0  0  0  0  0
   -3.9888   -0.4770   -1.0172 H   0  0  0  0  0  0  0  0  0  0  0  0
   -2.6011    0.7081    2.1107 H   0  0  0  0  0  0  0  0  0  0  0  0
   -3.0612   -1.0451    2.1213 H   0  0  0  0  0  0  0  0  0  0  0  0
  1  2  1  0
  2  3  1  0
  3  4  1  0
  4  5  1  0
  5  6  1  0
  6  7  1  0
  7  8  1  0
  8  9  1  0
  9 10  1  0
 10 11  1  0
  5 12  1  0
 12 13  2  0
 12  2  1  0
 11  7  1  0
  1 14  1  0
  1 15  1  0
  1 16  1  0
  3 17  1  0
  3 18  1  0
  4 19  1  0
  4 20  1  0
  5 21  1  6
  6 22  1  0
  7 23  1  6
  8 24  1  0
  8 25  1  0
  9 26  1  0
 11 27  1  0
 11 28  1  0
M  END
$$$$

     RDKit          3D

 28 29  0  0  0  0  0  0  0  0999 V2000
   -4.0375    0.7331    0.3891 C   0  0  0  0  0  0  0  0  0  0  0  0
   -2.6854    0.3803    0.0490 N   0  0  0  0  0  0  0  0  0  0  0  0
   -2.1272   -0.9511    0.0373 C   0  0  0  0  0  0  0  0  0  0  0  0
   -0.7815   -0.7179    0.7222 C   0  0  0  0  0  0  0  0  0  0  0  0
   -0.3235    0.5955    0.1590 C   0  0  1  0  0  0  0  0  0  0  0  0
    0.6615    0.4465   -0.7974 N   0  0  0  0  0  0  0  0  0  0  0  0
    1.9375    0.0067   -0.6524 C   0  0  2  0  0  0  0  0  0  0  0  0
    2.3387   -1.3268   -0.1727 C   0  0  0  0  0  0  0  0  0  0  0  0
    3.8252   -1.0851   -0.1193 N   0  0  0  0  0  0  0  0  0  0  0  0
    3.8822    0.0537    0.6524 O   0  0  0  0  0  0  0  0  0  0  0  0
    2.9001    0.9179    0.1462 C   0  0  0  0  0  0  0  0  0  0  0  0
   -1.5978    1.2069   -0.3473 C   0  0  0  0  0  0  0  0  0  0  0  0
   -1.7509    2.2638   -1.0119 O   0  0  0  0  0  0  0  0  0  0  0  0
   -4.5603    0.9389   -0.5842 H   0  0  0  0  0  0  0  0  0  0  0  0
   -4.5373   -0.1377    0.8597 H   0  0  0  0  0  0  0  0  0  0  0  0
   -4.0991    1.6364    1.0287 H   0  0  0  0  0  0  0  0  0  0  0  0
   -1.9967   -1.2508   -1.0150 H   0  0  0  0  0  0  0  0  0  0  0  0
   -2.7364   -1.6667    0.6271 H   0  0  0  0  0  0  0  0  0  0  0  0
   -0.1069   -1.5676    0.5219 H   0  0  0  0  0  0  0  0  0  0  0  0
   -1.0401   -0.6462    1.8130 H   0  0  0  0  0  0  0  0  0  0  0  0
   -0.0553    1.3114    1.0010 H   0  0  0  0  0  0  0  0  0  0  0  0
    0.2637    0.2557   -1.7602 H   0  0  0  0  0  0  0  0  0  0  0  0
    2.4407    0.0534   -1.7034 H   0  0  0  0  0  0  0  0  0  0  0  0
    2.2165   -2.1509   -0.8894 H   0  0  0  0  0  0  0  0  0  0  0  0
    2.1175   -1.6001    0.8693 H   0  0  0  0  0  0  0  0  0  0  0  0
    4.0699   -0.8109   -1.1172 H   0  0  0  0  0  0  0  0  0  0  0  0
    3.4261    1.6382   -0.5155 H   0  0  0  0  0  0  0  0  0  0  0  0
    2.3561    1.4732    0.9212 H   0  0  0  0  0  0  0  0  0  0  0  0
  1  2  1  0
  2  3  1  0
  3  4  1  0
  4  5  1  0
  5  6  1  0
  6  7  1  0
  7  8  1  0
  8  9  1  0
  9 10  1  0
 10 11  1  0
  5 12  1  0
 12 13  2  0
 12  2  1  0
 11  7  1  0
  1 14  1  0
  1 15  1  0
  1 16  1  0
  3 17  1  0
  3 18  1  0
  4 19  1  0
  4 20  1  0
  5 21  1  1
  6 22  1  0
  7 23  1  6
  8 24  1  0
  8 25  1  0
  9 26  1  0
 11 27  1  0
 11 28  1  0
M  END
$$$$

     RDKit          3D

 28 29  0  0  0  0  0  0  0  0999 V2000
    3.8841   -0.8018    0.2665 C   0  0  0  0  0  0  0  0  0  0  0  0
    2.6759   -0.0778    0.0381 N   0  0  0  0  0  0  0  0  0  0  0  0
    2.3199    0.6064   -1.2173 C   0  0  0  0  0  0  0  0  0  0  0  0
    0.8721    0.1159   -1.3400 C   0  0  0  0  0  0  0  0  0  0  0  0
    0.3493    0.4602    0.0464 C   0  0  1  0  0  0  0  0  0  0  0  0
   -0.7670   -0.3859    0.2917 N   0  0  0  0  0  0  0  0  0  0  0  0
   -1.8972    0.2327    0.9353 C   0  0  2  0  0  0  0  0  0  0  0  0
   -2.9934   -0.8353    0.9893 C   0  0  0  0  0  0  0  0  0  0  0  0
   -3.5821   -0.6821   -0.3117 N   0  0  0  0  0  0  0  0  0  0  0  0
   -3.1896    0.4517   -0.8721 O   0  0  0  0  0  0  0  0  0  0  0  0
   -2.5884    1.2592    0.0787 C   0  0  0  0  0  0  0  0  0  0  0  0
    1.5208    0.1358    0.9124 C   0  0  0  0  0  0  0  0  0  0  0  0
    1.6317    0.0286    2.1380 O   0  0  0  0  0  0  0  0  0  0  0  0
    4.6735   -0.3057   -0.3314 H   0  0  0  0  0  0  0  0  0  0  0  0
    3.8621   -1.8572   -0.0888 H   0  0  0  0  0  0  0  0  0  0  0  0
    4.1646   -0.8297    1.3444 H   0  0  0  0  0  0  0  0  0  0  0  0
    2.2595    1.7117   -1.0389 H   0  0  0  0  0  0  0  0  0  0  0  0
    2.9443    0.3376   -2.0488 H   0  0  0  0  0  0  0  0  0  0  0  0
    0.8890   -1.0135   -1.3554 H   0  0  0  0  0  0  0  0  0  0  0  0
    0.3378    0.5589   -2.1637 H   0  0  0  0  0  0  0  0  0  0  0  0
    0.1330    1.5350    0.0314 H   0  0  0  0  0  0  0  0  0  0  0  0
   -1.0940   -0.9622   -0.5163 H   0  0  0  0  0  0  0  0  0  0  0  0
   -1.6679    0.5850    1.9586 H   0  0  0  0  0  0  0  0  0  0  0  0
   -3.6604   -0.6747    1.8351 H   0  0  0  0  0  0  0  0  0  0  0  0
   -2.5277   -1.8555    1.0566 H   0  0  0  0  0  0  0  0  0  0  0  0
   -3.3020   -1.4668   -0.9610 H   0  0  0  0  0  0  0  0  0  0  0  0
   -1.8860    1.9855   -0.3678 H   0  0  0  0  0  0  0  0  0  0  0  0
   -3.3617    1.7441    0.6909 H   0  0  0  0  0  0  0  0  0  0  0  0
  1  2  1  0
  2  3  1  0
  3  4  1  0
  4  5  1  0
  5  6  1  0
  6  7  1  0
  7  8  1  0
  8  9  1  0
  9 10  1  0
 10 11  1  0
  5 12  1  0
 12 13  2  0
 12  2  1  0
 11  7  1  0
  1 14  1  0
  1 15  1  0
  1 16  1  0
  3 17  1  0
  3 18  1  0
  4 19  1  0
  4 20  1  0
  5 21  1  6
  6 22  1  0
  7 23  1  1
  8 24  1  0
  8 25  1  0
  9 26  1  0
 11 27  1  0
 11 28  1  0
M  END
$$$$

     RDKit          3D

 28 29  0  0  0  0  0  0  0  0999 V2000
    4.1342   -0.0438    0.0548 C   0  0  0  0  0  0  0  0  0  0  0  0
    2.7061    0.0332    0.1130 N   0  0  0  0  0  0  0  0  0  0  0  0
    1.8266   -0.8536    0.8840 C   0  0  0  0  0  0  0  0  0  0  0  0
    0.7813   -1.1632   -0.2056 C   0  0  0  0  0  0  0  0  0  0  0  0
    0.5009    0.2708   -0.6546 C   0  0  1  0  0  0  0  0  0  0  0  0
   -0.5833    0.7855    0.0943 N   0  0  0  0  0  0  0  0  0  0  0  0
   -1.8064    0.1369   -0.2329 C   0  0  2  0  0  0  0  0  0  0  0  0
   -2.8394    1.1855   -0.6519 C   0  0  0  0  0  0  0  0  0  0  0  0
   -3.9382    0.8608    0.2471 N   0  0  0  0  0  0  0  0  0  0  0  0
   -3.4221    0.3088    1.3539 O   0  0  0  0  0  0  0  0  0  0  0  0
   -2.5071   -0.6218    0.8213 C   0  0  0  0  0  0  0  0  0  0  0  0
    1.7944    0.9482   -0.5268 C   0  0  0  0  0  0  0  0  0  0  0  0
    2.1331    2.0821   -0.8797 O   0  0  0  0  0  0  0  0  0  0  0  0
    4.4389   -1.0368   -0.3889 H   0  0  0  0  0  0  0  0  0  0  0  0
    4.5483    0.7678   -0.5796 H   0  0  0  0  0  0  0  0  0  0  0  0
    4.5421   -0.0105    1.0818 H   0  0  0  0  0  0  0  0  0  0  0  0
    1.3667   -0.2343    1.6668 H   0  0  0  0  0  0  0  0  0  0  0  0
    2.3216   -1.7506    1.2367 H   0  0  0  0  0  0  0  0  0  0  0  0
   -0.0814   -1.6736    0.1867 H   0  0  0  0  0  0  0  0  0  0  0  0
    1.2720   -1.7353   -0.9907 H   0  0  0  0  0  0  0  0  0  0  0  0
    0.1822    0.2756   -1.7292 H   0  0  0  0  0  0  0  0  0  0  0  0
   -0.4071    0.8555    1.1288 H   0  0  0  0  0  0  0  0  0  0  0  0
   -1.6402   -0.5063   -1.1405 H   0  0  0  0  0  0  0  0  0  0  0  0
   -2.5136    2.2109   -0.3530 H   0  0  0  0  0  0  0  0  0  0  0  0
   -3.1392    1.0898   -1.6938 H   0  0  0  0  0  0  0  0  0  0  0  0
   -4.6603    0.2624   -0.2098 H   0  0  0  0  0  0  0  0  0  0  0  0
   -1.9007   -1.0169    1.6284 H   0  0  0  0  0  0  0  0  0  0  0  0
   -3.1093   -1.4273    0.3056 H   0  0  0  0  0  0  0  0  0  0  0  0
  1  2  1  0
  2  3  1  0
  3  4  1  0
  4  5  1  0
  5  6  1  0
  6  7  1  0
  7  8  1  0
  8  9  1  0
  9 10  1  0
 10 11  1  0
  5 12  1  0
 12 13  2  0
 12  2  1  0
 11  7  1  0
  1 14  1  0
  1 15  1  0
  1 16  1  0
  3 17  1  0
  3 18  1  0
  4 19  1  0
  4 20  1  0
  5 21  1  6
  6 22  1  0
  7 23  1  6
  8 24  1  0
  8 25  1  0
  9 26  1  0
 11 27  1  0
 11 28  1  0
M  END
$$$$

     RDKit          3D

 28 29  0  0  0  0  0  0  0  0999 V2000
   -3.8225    0.3030   -0.8145 C   0  0  0  0  0  0  0  0  0  0  0  0
   -2.5373    0.0614   -0.2088 N   0  0  0  0  0  0  0  0  0  0  0  0
   -2.2169    0.1700    1.1937 C   0  0  0  0  0  0  0  0  0  0  0  0
   -1.0620   -0.8467    1.2780 C   0  0  0  0  0  0  0  0  0  0  0  0
   -0.2787   -0.2980    0.1215 C   0  0  1  0  0  0  0  0  0  0  0  0
    0.8370   -1.0749   -0.3350 N   0  0  0  0  0  0  0  0  0  0  0  0
    2.0187   -0.3807   -0.6678 C   0  0  2  0  0  0  0  0  0  0  0  0
    3.2016   -0.5123    0.2321 C   0  0  0  0  0  0  0  0  0  0  0  0
    3.8848    0.7602    0.0824 N   0  0  0  0  0  0  0  0  0  0  0  0
    3.1795    1.5024   -0.7705 O   0  0  0  0  0  0  0  0  0  0  0  0
    1.8423    1.1566   -0.4637 C   0  0  0  0  0  0  0  0  0  0  0  0
   -1.3847   -0.3348   -0.9286 C   0  0  0  0  0  0  0  0  0  0  0  0
   -1.2993   -0.6539   -2.1290 O   0  0  0  0  0  0  0  0  0  0  0  0
   -4.5482    0.6170   -0.0734 H   0  0  0  0  0  0  0  0  0  0  0  0
   -3.7702    1.1110   -1.5973 H   0  0  0  0  0  0  0  0  0  0  0  0
   -4.1305   -0.6536   -1.2715 H   0  0  0  0  0  0  0  0  0  0  0  0
   -1.7488    1.1529    1.4110 H   0  0  0  0  0  0  0  0  0  0  0  0
   -3.0563   -0.0965    1.8464 H   0  0  0  0  0  0  0  0  0  0  0  0
   -0.5593   -0.8074    2.2309 H   0  0  0  0  0  0  0  0  0  0  0  0
   -1.4703   -1.8643    1.0591 H   0  0  0  0  0  0  0  0  0  0  0  0
   -0.1169    0.7594    0.2902 H   0  0  0  0  0  0  0  0  0  0  0  0
    1.0843   -1.8209    0.4128 H   0  0  0  0  0  0  0  0  0  0  0  0
    2.2607   -0.4913   -1.7237 H   0  0  0  0  0  0  0  0  0  0  0  0
    3.8808   -1.3528   -0.1158 H   0  0  0  0  0  0  0  0  0  0  0  0
    2.9265   -0.6584    1.2824 H   0  0  0  0  0  0  0  0  0  0  0  0
    4.0093    1.2702    0.9627 H   0  0  0  0  0  0  0  0  0  0  0  0
    1.7681    1.3933    0.6257 H   0  0  0  0  0  0  0  0  0  0  0  0
    1.1080    1.5889   -1.1082 H   0  0  0  0  0  0  0  0  0  0  0  0
  1  2  1  0
  2  3  1  0
  3  4  1  0
  4  5  1  0
  5  6  1  0
  6  7  1  0
  7  8  1  0
  8  9  1  0
  9 10  1  0
 10 11  1  0
  5 12  1  0
 12 13  2  0
 12  2  1  0
 11  7  1  0
  1 14  1  0
  1 15  1  0
  1 16  1  0
  3 17  1  0
  3 18  1  0
  4 19  1  0
  4 20  1  0
  5 21  1  1
  6 22  1  0
  7 23  1  6
  8 24  1  0
  8 25  1  0
  9 26  1  0
 11 27  1  0
 11 28  1  0
M  END
$$$$

     RDKit          3D

 28 29  0  0  0  0  0  0  0  0999 V2000
   -3.6081    1.3833   -0.2241 C   0  0  0  0  0  0  0  0  0  0  0  0
   -2.5112    0.4267   -0.1907 N   0  0  0  0  0  0  0  0  0  0  0  0
   -2.5972   -1.0166   -0.3037 C   0  0  0  0  0  0  0  0  0  0  0  0
   -1.1521   -1.4682   -0.3662 C   0  0  0  0  0  0  0  0  0  0  0  0
   -0.4887   -0.4142    0.4806 C   0  0  1  0  0  0  0  0  0  0  0  0
    0.8867   -0.4617    0.5807 N   0  0  0  0  0  0  0  0  0  0  0  0
    1.7323   -0.3052   -0.5192 C   0  0  2  0  0  0  0  0  0  0  0  0
    3.1202   -0.8257   -0.1126 C   0  0  0  0  0  0  0  0  0  0  0  0
    3.8733    0.4130   -0.0592 N   0  0  0  0  0  0  0  0  0  0  0  0
    3.4573    1.0170   -1.1990 O   0  0  0  0  0  0  0  0  0  0  0  0
    2.0705    1.0997   -0.9248 C   0  0  0  0  0  0  0  0  0  0  0  0
   -1.1336    0.8079   -0.0318 C   0  0  0  0  0  0  0  0  0  0  0  0
   -0.7150    1.9488   -0.3042 O   0  0  0  0  0  0  0  0  0  0  0  0
   -4.5539    0.8866   -0.4939 H   0  0  0  0  0  0  0  0  0  0  0  0
   -3.3035    2.1941   -0.9106 H   0  0  0  0  0  0  0  0  0  0  0  0
   -3.7800    1.8449    0.7744 H   0  0  0  0  0  0  0  0  0  0  0  0
   -3.1697   -1.3358   -1.1956 H   0  0  0  0  0  0  0  0  0  0  0  0
   -3.0247   -1.4391    0.6409 H   0  0  0  0  0  0  0  0  0  0  0  0
   -0.8347   -1.3297   -1.4272 H   0  0  0  0  0  0  0  0  0  0  0  0
   -1.0326   -2.4877    0.0059 H   0  0  0  0  0  0  0  0  0  0  0  0
   -0.9210   -0.5610    1.5165 H   0  0  0  0  0  0  0  0  0  0  0  0
    1.2342   -0.1434    1.5003 H   0  0  0  0  0  0  0  0  0  0  0  0
    1.3876   -0.9315   -1.3607 H   0  0  0  0  0  0  0  0  0  0  0  0
    3.5063   -1.5332   -0.8761 H   0  0  0  0  0  0  0  0  0  0  0  0
    3.1216   -1.2496    0.9054 H   0  0  0  0  0  0  0  0  0  0  0  0
    4.9017    0.2493   -0.0323 H   0  0  0  0  0  0  0  0  0  0  0  0
    2.0122    1.7828   -0.0478 H   0  0  0  0  0  0  0  0  0  0  0  0
    1.5218    1.4486   -1.8079 H   0  0  0  0  0  0  0  0  0  0  0  0
  1  2  1  0
  2  3  1  0
  3  4  1  0
  4  5  1  0
  5  6  1  0
  6  7  1  0
  7  8  1  0
  8  9  1  0
  9 10  1  0
 10 11  1  0
  5 12  1  0
 12 13  2  0
 12  2  1  0
 11  7  1  0
  1 14  1  0
  1 15  1  0
  1 16  1  0
  3 17  1  0
  3 18  1  0
  4 19  1  0
  4 20  1  0
  5 21  1  1
  6 22  1  0
  7 23  1  6
  8 24  1  0
  8 25  1  0
  9 26  1  0
 11 27  1  0
 11 28  1  0
M  END
$$$$
