
     RDKit          3D

 20 21  0  0  0  0  0  0  0  0999 V2000
    0.6753    2.5318   -0.2367 O   0  0  0  0  0  0  0  0  0  0  0  0
    0.8062    1.2866   -0.2476 C   0  0  0  0  0  0  0  0  0  0  0  0
    1.9876    0.6767    0.2891 N   0  0  0  0  0  0  0  0  0  0  0  0
    2.0264   -0.7684    0.2363 C   0  0  0  0  0  0  0  0  0  0  0  0
    0.7615   -1.3004    0.5829 N   0  0  0  0  0  0  0  0  0  0  0  0
   -0.3141   -0.8733   -0.1281 N   0  0  0  0  0  0  0  0  0  0  0  0
   -1.4400   -0.7171    0.8029 C   0  0  0  0  0  0  0  0  0  0  0  0
   -2.4024   -0.0228   -0.0310 N   0  0  0  0  0  0  0  0  0  0  0  0
   -1.5645    1.0394   -0.5940 C   0  0  0  0  0  0  0  0  0  0  0  0
   -0.2143    0.3649   -0.7976 C   0  0  1  0  0  0  0  0  0  0  0  0
    2.7698    1.2251    0.6914 H   0  0  0  0  0  0  0  0  0  0  0  0
    2.4366   -1.1359   -0.7263 H   0  0  0  0  0  0  0  0  0  0  0  0
    2.7647   -1.0987    1.0165 H   0  0  0  0  0  0  0  0  0  0  0  0
    0.8190   -2.3582    0.4874 H   0  0  0  0  0  0  0  0  0  0  0  0
   -1.1660   -0.0032    1.6199 H   0  0  0  0  0  0  0  0  0  0  0  0
   -1.7883   -1.6806    1.1697 H   0  0  0  0  0  0  0  0  0  0  0  0
   -2.6086   -0.6759   -0.8379 H   0  0  0  0  0  0  0  0  0  0  0  0
   -1.9886    1.4005   -1.5315 H   0  0  0  0  0  0  0  0  0  0  0  0
   -1.5028    1.8757    0.1280 H   0  0  0  0  0  0  0  0  0  0  0  0
   -0.0574    0.2338   -1.8935 H   0  0  0  0  0  0  0  0  0  0  0  0
  1  2  2  0
  2  3  1  0
  3  4  1  0
  4  5  1  0
  5  6  1  0
  6  7  1  0
  7  8  1  0
  8  9  1  0
  9 10  1  0
 10  2  1  0
 10  6  1  0
  3 11  1  0
  4 12  1  0
  4 13  1  0
  5 14  1  0
  7 15  1  0
  7 16  1  0
  8 17  1  0
  9 18  1  0
  9 19  1  0
 10 20  1  6
M  END
$$$$

     RDKit          3D

 20 21  0  0  0  0  0  0  0  0999 V2000
   -0.7492   -2.6922    0.5718 O   0  0  0  0  0  0  0  0  0  0  0  0
   -0.7718   -1.5017    0.1701 C   0  0  0  0  0  0  0  0  0  0  0  0
   -1.9814   -0.8022    0.1800 N   0  0  0  0  0  0  0  0  0  0  0  0
   -2.0099    0.5341   -0.3765 C   0  0  0  0  0  0  0  0  0  0  0  0
   -0.9291    0.8499   -1.2244 N   0  0  0  0  0  0  0  0  0  0  0  0
    0.2864    0.3764   -0.9637 N   0  0  0  0  0  0  0  0  0  0  0  0
    1.3128    1.2818   -0.6010 C   0  0  0  0  0  0  0  0  0  0  0  0
    2.0724    0.6866    0.4697 N   0  0  0  0  0  0  0  0  0  0  0  0
    1.4293   -0.5567    0.8048 C   0  0  0  0  0  0  0  0  0  0  0  0
    0.4492   -0.8578   -0.3005 C   0  0  1  0  0  0  0  0  0  0  0  0
   -2.8628   -1.2060    0.5725 H   0  0  0  0  0  0  0  0  0  0  0  0
   -2.1886    1.2786    0.4426 H   0  0  0  0  0  0  0  0  0  0  0  0
   -2.9540    0.5770   -0.9981 H   0  0  0  0  0  0  0  0  0  0  0  0
   -1.1393    1.1181   -2.1865 H   0  0  0  0  0  0  0  0  0  0  0  0
    1.9762    1.4324   -1.4988 H   0  0  0  0  0  0  0  0  0  0  0  0
    0.9560    2.2696   -0.2321 H   0  0  0  0  0  0  0  0  0  0  0  0
    3.0865    0.5560    0.2229 H   0  0  0  0  0  0  0  0  0  0  0  0
    0.8691   -0.3964    1.7568 H   0  0  0  0  0  0  0  0  0  0  0  0
    2.1711   -1.3834    0.9174 H   0  0  0  0  0  0  0  0  0  0  0  0
    0.9771   -1.5641   -1.0069 H   0  0  0  0  0  0  0  0  0  0  0  0
  1  2  2  0
  2  3  1  0
  3  4  1  0
  4  5  1  0
  5  6  1  0
  6  7  1  0
  7  8  1  0
  8  9  1  0
  9 10  1  0
 10  2  1  0
 10  6  1  0
  3 11  1  0
  4 12  1  0
  4 13  1  0
  5 14  1  0
  7 15  1  0
  7 16  1  0
  8 17  1  0
  9 18  1  0
  9 19  1  0
 10 20  1  6
M  END
$$$$

     RDKit          3D

 20 21  0  0  0  0  0  0  0  0999 V2000
    0.6926    2.5836   -0.7669 O   0  0  0  0  0  0  0  0  0  0  0  0
    0.7855    1.3675   -0.5436 C   0  0  0  0  0  0  0  0  0  0  0  0
    2.0348    0.8271   -0.1224 N   0  0  0  0  0  0  0  0  0  0  0  0
    2.1418   -0.6205   -0.1061 C   0  0  0  0  0  0  0  0  0  0  0  0
    0.8975   -1.1376    0.3688 N   0  0  0  0  0  0  0  0  0  0  0  0
   -0.1938   -0.8623   -0.4166 N   0  0  0  0  0  0  0  0  0  0  0  0
   -1.3806   -1.3421    0.2934 C   0  0  0  0  0  0  0  0  0  0  0  0
   -2.2944   -0.2343    0.3636 N   0  0  0  0  0  0  0  0  0  0  0  0
   -1.4349    0.9314    0.3062 C   0  0  0  0  0  0  0  0  0  0  0  0
   -0.4113    0.5082   -0.7220 C   0  0  1  0  0  0  0  0  0  0  0  0
    2.7988    1.4731    0.1488 H   0  0  0  0  0  0  0  0  0  0  0  0
    2.3603   -0.9958   -1.1371 H   0  0  0  0  0  0  0  0  0  0  0  0
    2.9307   -0.9257    0.6188 H   0  0  0  0  0  0  0  0  0  0  0  0
    0.7836   -0.9761    1.3778 H   0  0  0  0  0  0  0  0  0  0  0  0
   -1.1351   -1.6247    1.3473 H   0  0  0  0  0  0  0  0  0  0  0  0
   -1.8269   -2.2327   -0.2257 H   0  0  0  0  0  0  0  0  0  0  0  0
   -3.0227   -0.2292   -0.3628 H   0  0  0  0  0  0  0  0  0  0  0  0
   -1.9589    1.8532    0.0338 H   0  0  0  0  0  0  0  0  0  0  0  0
   -0.9068    0.9970    1.2756 H   0  0  0  0  0  0  0  0  0  0  0  0
   -0.8604    0.6399   -1.7309 H   0  0  0  0  0  0  0  0  0  0  0  0
  1  2  2  0
  2  3  1  0
  3  4  1  0
  4  5  1  0
  5  6  1  0
  6  7  1  0
  7  8  1  0
  8  9  1  0
  9 10  1  0
 10  2  1  0
 10  6  1  0
  3 11  1  0
  4 12  1  0
  4 13  1  0
  5 14  1  0
  7 15  1  0
  7 16  1  0
  8 17  1  0
  9 18  1  0
  9 19  1  0
 10 20  1  6
M  END
$$$$

     RDKit          3D

 20 21  0  0  0  0  0  0  0  0999 V2000
    1.4454    2.4509    0.1872 O   0  0  0  0  0  0  0  0  0  0  0  0
    1.1792    1.2506    0.0323 C   0  0  0  0  0  0  0  0  0  0  0  0
    2.2366    0.2995    0.1626 N   0  0  0  0  0  0  0  0  0  0  0  0
    1.8848   -1.0734   -0.2341 C   0  0  0  0  0  0  0  0  0  0  0  0
    0.6815   -1.4465    0.4130 N   0  0  0  0  0  0  0  0  0  0  0  0
   -0.2693   -0.5122    0.5817 N   0  0  0  0  0  0  0  0  0  0  0  0
   -1.6160   -0.8571    0.2982 C   0  0  0  0  0  0  0  0  0  0  0  0
   -2.3144    0.4189    0.3687 N   0  0  0  0  0  0  0  0  0  0  0  0
   -1.3145    1.4435    0.0898 C   0  0  0  0  0  0  0  0  0  0  0  0
   -0.1219    0.6645   -0.2770 C   0  0  1  0  0  0  0  0  0  0  0  0
    3.1867    0.5495    0.5108 H   0  0  0  0  0  0  0  0  0  0  0  0
    1.6899   -1.0512   -1.3464 H   0  0  0  0  0  0  0  0  0  0  0  0
    2.6968   -1.7763   -0.0341 H   0  0  0  0  0  0  0  0  0  0  0  0
    0.4390   -2.4273    0.4380 H   0  0  0  0  0  0  0  0  0  0  0  0
   -1.6656   -1.2235   -0.7600 H   0  0  0  0  0  0  0  0  0  0  0  0
   -2.0594   -1.5900    1.0061 H   0  0  0  0  0  0  0  0  0  0  0  0
   -3.0746    0.4692   -0.3486 H   0  0  0  0  0  0  0  0  0  0  0  0
   -1.1669    2.0520    1.0046 H   0  0  0  0  0  0  0  0  0  0  0  0
   -1.6561    2.0682   -0.7791 H   0  0  0  0  0  0  0  0  0  0  0  0
   -0.1810    0.2907   -1.3137 H   0  0  0  0  0  0  0  0  0  0  0  0
  1  2  2  0
  2  3  1  0
  3  4  1  0
  4  5  1  0
  5  6  1  0
  6  7  1  0
  7  8  1  0
  8  9  1  0
  9 10  1  0
 10  2  1  0
 10  6  1  0
  3 11  1  0
  4 12  1  0
  4 13  1  0
  5 14  1  0
  7 15  1  0
  7 16  1  0
  8 17  1  0
  9 18  1  0
  9 19  1  0
 10 20  1  6
M  END
$$$$

     RDKit          3D

 20 21  0  0  0  0  0  0  0  0999 V2000
    0.5678    2.5615    0.2125 O   0  0  0  0  0  0  0  0  0  0  0  0
    0.6813    1.3416   -0.0660 C   0  0  0  0  0  0  0  0  0  0  0  0
    1.8594    0.6562    0.3295 N   0  0  0  0  0  0  0  0  0  0  0  0
    2.0104   -0.7797    0.1893 C   0  0  0  0  0  0  0  0  0  0  0  0
    0.8973   -1.4101   -0.4355 N   0  0  0  0  0  0  0  0  0  0  0  0
   -0.2820   -0.7846   -0.4069 N   0  0  0  0  0  0  0  0  0  0  0  0
   -1.2523   -1.1119    0.5373 C   0  0  0  0  0  0  0  0  0  0  0  0
   -2.1274    0.0571    0.6656 N   0  0  0  0  0  0  0  0  0  0  0  0
   -1.7579    0.9649   -0.3788 C   0  0  0  0  0  0  0  0  0  0  0  0
   -0.3519    0.5779   -0.7874 C   0  0  1  0  0  0  0  0  0  0  0  0
    2.6541    1.1780    0.7358 H   0  0  0  0  0  0  0  0  0  0  0  0
    2.2303   -1.2646    1.1653 H   0  0  0  0  0  0  0  0  0  0  0  0
    2.9443   -0.9291   -0.4264 H   0  0  0  0  0  0  0  0  0  0  0  0
    1.1522   -1.6753   -1.4129 H   0  0  0  0  0  0  0  0  0  0  0  0
   -1.8942   -1.9374    0.1536 H   0  0  0  0  0  0  0  0  0  0  0  0
   -0.8929   -1.3952    1.5444 H   0  0  0  0  0  0  0  0  0  0  0  0
   -2.0401    0.5003    1.6038 H   0  0  0  0  0  0  0  0  0  0  0  0
   -2.4374    0.7785   -1.2603 H   0  0  0  0  0  0  0  0  0  0  0  0
   -1.7686    2.0218   -0.0802 H   0  0  0  0  0  0  0  0  0  0  0  0
   -0.1924    0.6502   -1.8826 H   0  0  0  0  0  0  0  0  0  0  0  0
  1  2  2  0
  2  3  1  0
  3  4  1  0
  4  5  1  0
  5  6  1  0
  6  7  1  0
  7  8  1  0
  8  9  1  0
  9 10  1  0
 10  2  1  0
 10  6  1  0
  3 11  1  0
  4 12  1  0
  4 13  1  0
  5 14  1  0
  7 15  1  0
  7 16  1  0
  8 17  1  0
  9 18  1  0
  9 19  1  0
 10 20  1  6
M  END
$$$$

     RDKit          3D

 20 21  0  0  0  0  0  0  0  0999 V2000
    0.4497    2.7489   -0.0227 O   0  0  0  0  0  0  0  0  0  0  0  0
    0.6737    1.5257   -0.0764 C   0  0  0  0  0  0  0  0  0  0  0  0
    1.9556    0.9931    0.3295 N   0  0  0  0  0  0  0  0  0  0  0  0
    2.1258   -0.4294    0.0779 C   0  0  0  0  0  0  0  0  0  0  0  0
    0.9986   -1.2101    0.5154 N   0  0  0  0  0  0  0  0  0  0  0  0
   -0.2070   -0.5862    0.4572 N   0  0  0  0  0  0  0  0  0  0  0  0
   -1.3103   -1.3762    0.0036 C   0  0  0  0  0  0  0  0  0  0  0  0
   -2.3589   -0.3678   -0.0376 N   0  0  0  0  0  0  0  0  0  0  0  0
   -1.7061    0.8710   -0.4273 C   0  0  0  0  0  0  0  0  0  0  0  0
   -0.2671    0.4964   -0.5310 C   0  0  1  0  0  0  0  0  0  0  0  0
    2.6873    1.5933    0.7656 H   0  0  0  0  0  0  0  0  0  0  0  0
    2.2443   -0.6357   -1.0265 H   0  0  0  0  0  0  0  0  0  0  0  0
    3.0426   -0.8190    0.5921 H   0  0  0  0  0  0  0  0  0  0  0  0
    1.1675   -1.5053    1.5231 H   0  0  0  0  0  0  0  0  0  0  0  0
   -1.1809   -1.7494   -1.0483 H   0  0  0  0  0  0  0  0  0  0  0  0
   -1.5683   -2.2124    0.6741 H   0  0  0  0  0  0  0  0  0  0  0  0
   -2.6954   -0.2567    0.9456 H   0  0  0  0  0  0  0  0  0  0  0  0
   -1.9200    1.6973    0.2636 H   0  0  0  0  0  0  0  0  0  0  0  0
   -2.1125    1.1259   -1.4494 H   0  0  0  0  0  0  0  0  0  0  0  0
   -0.0187    0.0966   -1.5287 H   0  0  0  0  0  0  0  0  0  0  0  0
  1  2  2  0
  2  3  1  0
  3  4  1  0
  4  5  1  0
  5  6  1  0
  6  7  1  0
  7  8  1  0
  8  9  1  0
  9 10  1  0
 10  2  1  0
 10  6  1  0
  3 11  1  0
  4 12  1  0
  4 13  1  0
  5 14  1  0
  7 15  1  0
  7 16  1  0
  8 17  1  0
  9 18  1  0
  9 19  1  0
 10 20  1  6
M  END
$$$$

     RDKit          3D

 20 21  0  0  0  0  0  0  0  0999 V2000
    0.0377    2.7194    0.6348 O   0  0  0  0  0  0  0  0  0  0  0  0
    0.5053    1.6119    0.2805 C   0  0  0  0  0  0  0  0  0  0  0  0
    1.8468    1.2187    0.5016 N   0  0  0  0  0  0  0  0  0  0  0  0
    2.2205   -0.1649    0.4452 C   0  0  0  0  0  0  0  0  0  0  0  0
    1.0269   -0.9755    0.4896 N   0  0  0  0  0  0  0  0  0  0  0  0
    0.1040   -0.6608   -0.4929 N   0  0  0  0  0  0  0  0  0  0  0  0
   -1.0842   -1.4702   -0.2417 C   0  0  0  0  0  0  0  0  0  0  0  0
   -1.6940   -0.7522    0.8680 N   0  0  0  0  0  0  0  0  0  0  0  0
   -1.7256    0.6098    0.3157 C   0  0  0  0  0  0  0  0  0  0  0  0
   -0.4197    0.6694   -0.4115 C   0  0  1  0  0  0  0  0  0  0  0  0
    2.5509    1.9611    0.7056 H   0  0  0  0  0  0  0  0  0  0  0  0
    2.8742   -0.3987   -0.4117 H   0  0  0  0  0  0  0  0  0  0  0  0
    2.8043   -0.4183    1.3731 H   0  0  0  0  0  0  0  0  0  0  0  0
    1.2056   -1.9832    0.5061 H   0  0  0  0  0  0  0  0  0  0  0  0
   -0.8044   -2.4705    0.0984 H   0  0  0  0  0  0  0  0  0  0  0  0
   -1.7882   -1.4513   -1.0824 H   0  0  0  0  0  0  0  0  0  0  0  0
   -2.6318   -1.1015    1.1059 H   0  0  0  0  0  0  0  0  0  0  0  0
   -1.8553    1.3711    1.0838 H   0  0  0  0  0  0  0  0  0  0  0  0
   -2.5739    0.6285   -0.4012 H   0  0  0  0  0  0  0  0  0  0  0  0
   -0.5990    1.0569   -1.4299 H   0  0  0  0  0  0  0  0  0  0  0  0
  1  2  2  0
  2  3  1  0
  3  4  1  0
  4  5  1  0
  5  6  1  0
  6  7  1  0
  7  8  1  0
  8  9  1  0
  9 10  1  0
 10  2  1  0
 10  6  1  0
  3 11  1  0
  4 12  1  0
  4 13  1  0
  5 14  1  0
  7 15  1  0
  7 16  1  0
  8 17  1  0
  9 18  1  0
  9 19  1  0
 10 20  1  6
M  END
$$$$

     RDKit          3D

 20 21  0  0  0  0  0  0  0  0999 V2000
    0.3533    2.8056   -0.4084 O   0  0  0  0  0  0  0  0  0  0  0  0
    0.6018    1.5816   -0.2552 C   0  0  0  0  0  0  0  0  0  0  0  0
    1.9028    1.1535    0.1467 N   0  0  0  0  0  0  0  0  0  0  0  0
    2.1634   -0.2728    0.0449 C   0  0  0  0  0  0  0  0  0  0  0  0
    1.0979   -1.0075    0.5952 N   0  0  0  0  0  0  0  0  0  0  0  0
   -0.1246   -0.4642    0.6346 N   0  0  0  0  0  0  0  0  0  0  0  0
   -1.2492   -1.3233    0.4679 C   0  0  0  0  0  0  0  0  0  0  0  0
   -2.3574   -0.4921    0.0257 N   0  0  0  0  0  0  0  0  0  0  0  0
   -1.7822    0.8367   -0.2024 C   0  0  0  0  0  0  0  0  0  0  0  0
   -0.3552    0.4917   -0.4569 C   0  0  1  0  0  0  0  0  0  0  0  0
    2.6313    1.8225    0.4953 H   0  0  0  0  0  0  0  0  0  0  0  0
    2.2695   -0.5581   -1.0399 H   0  0  0  0  0  0  0  0  0  0  0  0
    3.1133   -0.5426    0.5507 H   0  0  0  0  0  0  0  0  0  0  0  0
    1.2540   -1.9559    0.8934 H   0  0  0  0  0  0  0  0  0  0  0  0
   -0.9858   -2.1065   -0.2802 H   0  0  0  0  0  0  0  0  0  0  0  0
   -1.5747   -1.8222    1.4069 H   0  0  0  0  0  0  0  0  0  0  0  0
   -2.6396   -0.8324   -0.9272 H   0  0  0  0  0  0  0  0  0  0  0  0
   -2.2763    1.3608   -1.0365 H   0  0  0  0  0  0  0  0  0  0  0  0
   -1.8512    1.3714    0.7556 H   0  0  0  0  0  0  0  0  0  0  0  0
   -0.1909   -0.0461   -1.4103 H   0  0  0  0  0  0  0  0  0  0  0  0
  1  2  2  0
  2  3  1  0
  3  4  1  0
  4  5  1  0
  5  6  1  0
  6  7  1  0
  7  8  1  0
  8  9  1  0
  9 10  1  0
 10  2  1  0
 10  6  1  0
  3 11  1  0
  4 12  1  0
  4 13  1  0
  5 14  1  0
  7 15  1  0
  7 16  1  0
  8 17  1  0
  9 18  1  0
  9 19  1  0
 10 20  1  6
M  END
$$$$
