
     RDKit          3D

 22 22  0  0  0  0  0  0  0  0999 V2000
    3.1557   -1.0117   -1.0144 O   0  0  0  0  0  0  0  0  0  0  0  0
    2.3509   -0.5227   -0.1823 C   0  0  0  0  0  0  0  0  0  0  0  0
    2.8131   -0.2198    1.0973 O   0  0  0  0  0  0  0  0  0  0  0  0
    0.9561   -0.2940   -0.6034 C   0  0  2  0  0  0  0  0  0  0  0  0
    0.8123   -0.6954   -1.9271 O   0  0  0  0  0  0  0  0  0  0  0  0
    0.6787    1.1596   -0.4339 C   0  0  0  0  0  0  0  0  0  0  0  0
   -0.3830    1.6421    0.1853 C   0  0  0  0  0  0  0  0  0  0  0  0
   -1.4277    0.7686    0.7871 C   0  0  1  0  0  0  0  0  0  0  0  0
   -2.6769    1.3284    0.7945 O   0  0  0  0  0  0  0  0  0  0  0  0
   -1.3972   -0.5326   -0.0191 C   0  0  2  0  0  0  0  0  0  0  0  0
   -2.3839   -1.3928    0.4119 O   0  0  0  0  0  0  0  0  0  0  0  0
   -0.0229   -1.1250    0.2049 C   0  0  0  0  0  0  0  0  0  0  0  0
    3.5360   -0.8259    1.4679 H   0  0  0  0  0  0  0  0  0  0  0  0
    0.6326    0.0667   -2.5185 H   0  0  0  0  0  0  0  0  0  0  0  0
    1.3922    1.8485   -0.8444 H   0  0  0  0  0  0  0  0  0  0  0  0
   -0.4960    2.7109    0.2571 H   0  0  0  0  0  0  0  0  0  0  0  0
   -1.0908    0.4978    1.8239 H   0  0  0  0  0  0  0  0  0  0  0  0
   -2.6405    2.3096    0.6968 H   0  0  0  0  0  0  0  0  0  0  0  0
   -1.5267   -0.2778   -1.0890 H   0  0  0  0  0  0  0  0  0  0  0  0
   -2.3967   -2.1589   -0.2315 H   0  0  0  0  0  0  0  0  0  0  0  0
    0.1837   -1.1089    1.2734 H   0  0  0  0  0  0  0  0  0  0  0  0
   -0.0689   -2.1668   -0.2138 H   0  0  0  0  0  0  0  0  0  0  0  0
  1  2  2  0
  2  3  1  0
  2  4  1  0
  4  5  1  6
  4  6  1  0
  6  7  2  0
  7  8  1  0
  8  9  1  0
  8 10  1  0
 10 11  1  0
 10 12  1  0
 12  4  1  0
  3 13  1  0
  5 14  1  0
  6 15  1  0
  7 16  1  0
  8 17  1  1
  9 18  1  0
 10 19  1  6
 11 20  1  0
 12 21  1  0
 12 22  1  0
M  END
$$$$

     RDKit          3D

 22 22  0  0  0  0  0  0  0  0999 V2000
    3.0121   -0.9036   -0.5944 O   0  0  0  0  0  0  0  0  0  0  0  0
    2.4646    0.2042   -0.3647 C   0  0  0  0  0  0  0  0  0  0  0  0
    3.2772    1.3430   -0.4049 O   0  0  0  0  0  0  0  0  0  0  0  0
    1.0332    0.3045   -0.0663 C   0  0  2  0  0  0  0  0  0  0  0  0
    0.7047    1.6544    0.1456 O   0  0  0  0  0  0  0  0  0  0  0  0
    0.6930   -0.4284    1.1849 C   0  0  0  0  0  0  0  0  0  0  0  0
   -0.5549   -0.7500    1.4140 C   0  0  0  0  0  0  0  0  0  0  0  0
   -1.6972   -0.4465    0.5221 C   0  0  1  0  0  0  0  0  0  0  0  0
   -2.5556    0.4617    1.1467 O   0  0  0  0  0  0  0  0  0  0  0  0
   -1.2863    0.0199   -0.8353 C   0  0  2  0  0  0  0  0  0  0  0  0
   -2.0526   -0.6669   -1.7984 O   0  0  0  0  0  0  0  0  0  0  0  0
    0.1541   -0.2298   -1.1581 C   0  0  0  0  0  0  0  0  0  0  0  0
    4.2673    1.3279   -0.3640 H   0  0  0  0  0  0  0  0  0  0  0  0
   -0.2336    1.7520    0.4330 H   0  0  0  0  0  0  0  0  0  0  0  0
    1.4754   -0.6810    1.8782 H   0  0  0  0  0  0  0  0  0  0  0  0
   -0.7805   -1.2868    2.3373 H   0  0  0  0  0  0  0  0  0  0  0  0
   -2.2916   -1.4015    0.4382 H   0  0  0  0  0  0  0  0  0  0  0  0
   -2.0898    1.0381    1.7979 H   0  0  0  0  0  0  0  0  0  0  0  0
   -1.5542    1.1017   -0.9799 H   0  0  0  0  0  0  0  0  0  0  0  0
   -2.6733   -1.2873   -1.3786 H   0  0  0  0  0  0  0  0  0  0  0  0
    0.3129   -1.3229   -1.2124 H   0  0  0  0  0  0  0  0  0  0  0  0
    0.3750    0.1972   -2.1410 H   0  0  0  0  0  0  0  0  0  0  0  0
  1  2  2  0
  2  3  1  0
  2  4  1  0
  4  5  1  1
  4  6  1  0
  6  7  2  0
  7  8  1  0
  8  9  1  0
  8 10  1  0
 10 11  1  0
 10 12  1  0
 12  4  1  0
  3 13  1  0
  5 14  1  0
  6 15  1  0
  7 16  1  0
  8 17  1  6
  9 18  1  0
 10 19  1  1
 11 20  1  0
 12 21  1  0
 12 22  1  0
M  END
$$$$

     RDKit          3D

 22 22  0  0  0  0  0  0  0  0999 V2000
   -2.7264    0.4223   -1.6714 O   0  0  0  0  0  0  0  0  0  0  0  0
   -2.4088    0.0945   -0.5111 C   0  0  0  0  0  0  0  0  0  0  0  0
   -3.3971   -0.2926    0.3666 O   0  0  0  0  0  0  0  0  0  0  0  0
   -0.9971    0.1149   -0.0656 C   0  0  2  0  0  0  0  0  0  0  0  0
   -0.8661   -0.2865    1.2627 O   0  0  0  0  0  0  0  0  0  0  0  0
   -0.3700    1.4408   -0.2177 C   0  0  0  0  0  0  0  0  0  0  0  0
    0.9456    1.5328   -0.2411 C   0  0  0  0  0  0  0  0  0  0  0  0
    1.8855    0.4105   -0.1273 C   0  0  1  0  0  0  0  0  0  0  0  0
    2.6011    0.5046    1.0822 O   0  0  0  0  0  0  0  0  0  0  0  0
    1.1904   -0.9180   -0.1351 C   0  0  2  0  0  0  0  0  0  0  0  0
    1.9865   -1.9534   -0.5686 O   0  0  0  0  0  0  0  0  0  0  0  0
   -0.1465   -0.8667   -0.8773 C   0  0  0  0  0  0  0  0  0  0  0  0
   -4.3846   -0.3285    0.1268 H   0  0  0  0  0  0  0  0  0  0  0  0
   -1.6691   -0.0066    1.7596 H   0  0  0  0  0  0  0  0  0  0  0  0
   -0.9878    2.3156   -0.3076 H   0  0  0  0  0  0  0  0  0  0  0  0
    1.4027    2.5331   -0.3557 H   0  0  0  0  0  0  0  0  0  0  0  0
    2.5915    0.4604   -0.9900 H   0  0  0  0  0  0  0  0  0  0  0  0
    3.3520    1.1349    0.9454 H   0  0  0  0  0  0  0  0  0  0  0  0
    0.9078   -1.1390    0.9358 H   0  0  0  0  0  0  0  0  0  0  0  0
    1.7321   -2.7729   -0.0893 H   0  0  0  0  0  0  0  0  0  0  0  0
   -0.0315   -0.5449   -1.9136 H   0  0  0  0  0  0  0  0  0  0  0  0
   -0.6101   -1.8554   -0.7654 H   0  0  0  0  0  0  0  0  0  0  0  0
  1  2  2  0
  2  3  1  0
  2  4  1  0
  4  5  1  1
  4  6  1  0
  6  7  2  0
  7  8  1  0
  8  9  1  0
  8 10  1  0
 10 11  1  0
 10 12  1  0
 12  4  1  0
  3 13  1  0
  5 14  1  0
  6 15  1  0
  7 16  1  0
  8 17  1  6
  9 18  1  0
 10 19  1  1
 11 20  1  0
 12 21  1  0
 12 22  1  0
M  END
$$$$

     RDKit          3D

 22 22  0  0  0  0  0  0  0  0999 V2000
    3.1101   -0.6420    0.2178 O   0  0  0  0  0  0  0  0  0  0  0  0
    1.8756   -0.5128    0.4088 C   0  0  0  0  0  0  0  0  0  0  0  0
    1.2868   -1.3663    1.3277 O   0  0  0  0  0  0  0  0  0  0  0  0
    1.1676    0.5206   -0.3493 C   0  0  2  0  0  0  0  0  0  0  0  0
    2.0404    1.2100   -1.1873 O   0  0  0  0  0  0  0  0  0  0  0  0
    0.5280    1.4402    0.6376 C   0  0  0  0  0  0  0  0  0  0  0  0
   -0.6497    1.1179    1.1077 C   0  0  0  0  0  0  0  0  0  0  0  0
   -1.4425   -0.0722    0.7734 C   0  0  1  0  0  0  0  0  0  0  0  0
   -2.7935    0.3251    0.7150 O   0  0  0  0  0  0  0  0  0  0  0  0
   -0.9991   -0.7608   -0.4866 C   0  0  2  0  0  0  0  0  0  0  0  0
   -0.6630   -2.0976   -0.2839 O   0  0  0  0  0  0  0  0  0  0  0  0
    0.0693   -0.0220   -1.2274 C   0  0  0  0  0  0  0  0  0  0  0  0
    1.5666   -2.3445    1.3557 H   0  0  0  0  0  0  0  0  0  0  0  0
    1.8551    2.1693   -1.1956 H   0  0  0  0  0  0  0  0  0  0  0  0
    1.0941    2.3269    0.9010 H   0  0  0  0  0  0  0  0  0  0  0  0
   -1.0949    1.8184    1.8351 H   0  0  0  0  0  0  0  0  0  0  0  0
   -1.3868   -0.7979    1.6103 H   0  0  0  0  0  0  0  0  0  0  0  0
   -2.8879    0.8957   -0.1039 H   0  0  0  0  0  0  0  0  0  0  0  0
   -1.8999   -0.7856   -1.1693 H   0  0  0  0  0  0  0  0  0  0  0  0
   -0.8302   -2.5941   -1.1288 H   0  0  0  0  0  0  0  0  0  0  0  0
    0.4531   -0.6792   -2.0306 H   0  0  0  0  0  0  0  0  0  0  0  0
   -0.3992    0.8508   -1.7275 H   0  0  0  0  0  0  0  0  0  0  0  0
  1  2  2  0
  2  3  1  0
  2  4  1  0
  4  5  1  6
  4  6  1  0
  6  7  2  0
  7  8  1  0
  8  9  1  0
  8 10  1  0
 10 11  1  0
 10 12  1  0
 12  4  1  0
  3 13  1  0
  5 14  1  0
  6 15  1  0
  7 16  1  0
  8 17  1  1
  9 18  1  0
 10 19  1  6
 11 20  1  0
 12 21  1  0
 12 22  1  0
M  END
$$$$

     RDKit          3D

 22 22  0  0  0  0  0  0  0  0999 V2000
    1.4203    0.6618    1.6331 O   0  0  0  0  0  0  0  0  0  0  0  0
    1.8395    0.0286    0.6280 C   0  0  0  0  0  0  0  0  0  0  0  0
    3.1526   -0.4040    0.6918 O   0  0  0  0  0  0  0  0  0  0  0  0
    1.0387   -0.2609   -0.5571 C   0  0  2  0  0  0  0  0  0  0  0  0
    1.8132   -0.9757   -1.4696 O   0  0  0  0  0  0  0  0  0  0  0  0
    0.5671    0.9801   -1.2176 C   0  0  0  0  0  0  0  0  0  0  0  0
   -0.5375    1.5746   -0.8450 C   0  0  0  0  0  0  0  0  0  0  0  0
   -1.3680    1.0445    0.2471 C   0  0  1  0  0  0  0  0  0  0  0  0
   -2.6990    1.4255   -0.0505 O   0  0  0  0  0  0  0  0  0  0  0  0
   -1.2558   -0.4257    0.4762 C   0  0  2  0  0  0  0  0  0  0  0  0
   -1.2270   -0.7349    1.8554 O   0  0  0  0  0  0  0  0  0  0  0  0
   -0.1696   -1.1182   -0.2722 C   0  0  0  0  0  0  0  0  0  0  0  0
    3.8323    0.0460    1.3117 H   0  0  0  0  0  0  0  0  0  0  0  0
    1.8694   -1.9010   -1.1172 H   0  0  0  0  0  0  0  0  0  0  0  0
    1.1727    1.3877   -2.0301 H   0  0  0  0  0  0  0  0  0  0  0  0
   -0.8036    2.4925   -1.4005 H   0  0  0  0  0  0  0  0  0  0  0  0
   -1.1315    1.5727    1.1988 H   0  0  0  0  0  0  0  0  0  0  0  0
   -3.1705    0.5782   -0.2724 H   0  0  0  0  0  0  0  0  0  0  0  0
   -2.2334   -0.8803    0.1338 H   0  0  0  0  0  0  0  0  0  0  0  0
   -1.6408   -1.6004    2.0324 H   0  0  0  0  0  0  0  0  0  0  0  0
    0.0934   -2.0433    0.2794 H   0  0  0  0  0  0  0  0  0  0  0  0
   -0.5622   -1.4478   -1.2555 H   0  0  0  0  0  0  0  0  0  0  0  0
  1  2  2  0
  2  3  1  0
  2  4  1  0
  4  5  1  6
  4  6  1  0
  6  7  2  0
  7  8  1  0
  8  9  1  0
  8 10  1  0
 10 11  1  0
 10 12  1  0
 12  4  1  0
  3 13  1  0
  5 14  1  0
  6 15  1  0
  7 16  1  0
  8 17  1  1
  9 18  1  0
 10 19  1  6
 11 20  1  0
 12 21  1  0
 12 22  1  0
M  END
$$$$

     RDKit          3D

 22 22  0  0  0  0  0  0  0  0999 V2000
    2.6438    0.4369   -1.3879 O   0  0  0  0  0  0  0  0  0  0  0  0
    2.3651    0.1276   -0.2004 C   0  0  0  0  0  0  0  0  0  0  0  0
    3.3954    0.0557    0.7040 O   0  0  0  0  0  0  0  0  0  0  0  0
    0.9351   -0.1424    0.1551 C   0  0  2  0  0  0  0  0  0  0  0  0
    0.8793   -0.4626    1.5183 O   0  0  0  0  0  0  0  0  0  0  0  0
    0.4000   -1.2985   -0.5922 C   0  0  0  0  0  0  0  0  0  0  0  0
   -0.9240   -1.4226   -0.6329 C   0  0  0  0  0  0  0  0  0  0  0  0
   -1.7963   -0.4562    0.0330 C   0  0  1  0  0  0  0  0  0  0  0  0
   -2.0515   -0.8307    1.3730 O   0  0  0  0  0  0  0  0  0  0  0  0
   -1.3147    0.9644   -0.0222 C   0  0  2  0  0  0  0  0  0  0  0  0
   -1.9390    1.6419   -1.0885 O   0  0  0  0  0  0  0  0  0  0  0  0
    0.1685    1.1135   -0.0989 C   0  0  0  0  0  0  0  0  0  0  0  0
    4.3451    0.4019    0.5004 H   0  0  0  0  0  0  0  0  0  0  0  0
    1.2436   -1.3670    1.6949 H   0  0  0  0  0  0  0  0  0  0  0  0
    1.0404   -2.0314   -1.0966 H   0  0  0  0  0  0  0  0  0  0  0  0
   -1.3638   -2.2701   -1.1787 H   0  0  0  0  0  0  0  0  0  0  0  0
   -2.7868   -0.4827   -0.4685 H   0  0  0  0  0  0  0  0  0  0  0  0
   -2.8365   -1.4338    1.4005 H   0  0  0  0  0  0  0  0  0  0  0  0
   -1.6650    1.4709    0.9024 H   0  0  0  0  0  0  0  0  0  0  0  0
   -1.7492    2.6112   -1.0324 H   0  0  0  0  0  0  0  0  0  0  0  0
    0.4551    1.4871   -1.1069 H   0  0  0  0  0  0  0  0  0  0  0  0
    0.5554    1.8868    0.6248 H   0  0  0  0  0  0  0  0  0  0  0  0
  1  2  2  0
  2  3  1  0
  2  4  1  0
  4  5  1  1
  4  6  1  0
  6  7  2  0
  7  8  1  0
  8  9  1  0
  8 10  1  0
 10 11  1  0
 10 12  1  0
 12  4  1  0
  3 13  1  0
  5 14  1  0
  6 15  1  0
  7 16  1  0
  8 17  1  6
  9 18  1  0
 10 19  1  1
 11 20  1  0
 12 21  1  0
 12 22  1  0
M  END
$$$$

     RDKit          3D

 22 22  0  0  0  0  0  0  0  0999 V2000
    3.2891   -0.1151    0.1969 O   0  0  0  0  0  0  0  0  0  0  0  0
    2.1127    0.2906    0.0201 C   0  0  0  0  0  0  0  0  0  0  0  0
    1.8500    1.6465   -0.2240 O   0  0  0  0  0  0  0  0  0  0  0  0
    1.0183   -0.7069    0.0780 C   0  0  2  0  0  0  0  0  0  0  0  0
    1.6080   -1.9587    0.3357 O   0  0  0  0  0  0  0  0  0  0  0  0
    0.3225   -0.8549   -1.2145 C   0  0  0  0  0  0  0  0  0  0  0  0
   -0.8277   -0.2635   -1.4924 C   0  0  0  0  0  0  0  0  0  0  0  0
   -1.4317    0.5888   -0.4330 C   0  0  1  0  0  0  0  0  0  0  0  0
   -2.7938    0.7931   -0.6495 O   0  0  0  0  0  0  0  0  0  0  0  0
   -1.3234   -0.2060    0.8603 C   0  0  2  0  0  0  0  0  0  0  0  0
   -1.9968    0.5288    1.8400 O   0  0  0  0  0  0  0  0  0  0  0  0
    0.1110   -0.4393    1.2449 C   0  0  0  0  0  0  0  0  0  0  0  0
    2.5693    2.1683   -0.7065 H   0  0  0  0  0  0  0  0  0  0  0  0
    2.4282   -2.0989   -0.2025 H   0  0  0  0  0  0  0  0  0  0  0  0
    0.7508   -1.4759   -2.0028 H   0  0  0  0  0  0  0  0  0  0  0  0
   -1.3316   -0.3792   -2.4478 H   0  0  0  0  0  0  0  0  0  0  0  0
   -0.8889    1.5473   -0.3646 H   0  0  0  0  0  0  0  0  0  0  0  0
   -2.8596    1.5053   -1.3453 H   0  0  0  0  0  0  0  0  0  0  0  0
   -1.8091   -1.1864    0.6855 H   0  0  0  0  0  0  0  0  0  0  0  0
   -1.4043    1.3089    2.0653 H   0  0  0  0  0  0  0  0  0  0  0  0
    0.4572    0.5121    1.7353 H   0  0  0  0  0  0  0  0  0  0  0  0
    0.1498   -1.2049    2.0208 H   0  0  0  0  0  0  0  0  0  0  0  0
  1  2  2  0
  2  3  1  0
  2  4  1  0
  4  5  1  1
  4  6  1  0
  6  7  2  0
  7  8  1  0
  8  9  1  0
  8 10  1  0
 10 11  1  0
 10 12  1  0
 12  4  1  0
  3 13  1  0
  5 14  1  0
  6 15  1  0
  7 16  1  0
  8 17  1  1
  9 18  1  0
 10 19  1  6
 11 20  1  0
 12 21  1  0
 12 22  1  0
M  END
$$$$

     RDKit          3D

 22 22  0  0  0  0  0  0  0  0999 V2000
    2.6778   -0.8941   -1.6035 O   0  0  0  0  0  0  0  0  0  0  0  0
    2.3855   -0.2425   -0.5724 C   0  0  0  0  0  0  0  0  0  0  0  0
    3.4433    0.4302    0.0589 O   0  0  0  0  0  0  0  0  0  0  0  0
    1.0241   -0.1781   -0.0458 C   0  0  2  0  0  0  0  0  0  0  0  0
    1.0196    0.6219    1.1077 O   0  0  0  0  0  0  0  0  0  0  0  0
    0.4270   -1.5094    0.2379 C   0  0  0  0  0  0  0  0  0  0  0  0
   -0.8842   -1.5441    0.4295 C   0  0  0  0  0  0  0  0  0  0  0  0
   -1.7765   -0.3606    0.3797 C   0  0  1  0  0  0  0  0  0  0  0  0
   -2.2402   -0.1394    1.6748 O   0  0  0  0  0  0  0  0  0  0  0  0
   -1.1525    0.8726   -0.1806 C   0  0  2  0  0  0  0  0  0  0  0  0
   -2.0512    1.6637   -0.8877 O   0  0  0  0  0  0  0  0  0  0  0  0
    0.0574    0.5103   -1.0177 C   0  0  0  0  0  0  0  0  0  0  0  0
    4.3946    0.3752   -0.2462 H   0  0  0  0  0  0  0  0  0  0  0  0
    0.8509    0.0933    1.9243 H   0  0  0  0  0  0  0  0  0  0  0  0
    1.0346   -2.4030    0.2849 H   0  0  0  0  0  0  0  0  0  0  0  0
   -1.3352   -2.4964    0.6358 H   0  0  0  0  0  0  0  0  0  0  0  0
   -2.6665   -0.6137   -0.2322 H   0  0  0  0  0  0  0  0  0  0  0  0
   -3.0337    0.4707    1.6409 H   0  0  0  0  0  0  0  0  0  0  0  0
   -0.7500    1.5006    0.6682 H   0  0  0  0  0  0  0  0  0  0  0  0
   -1.7447    2.6031   -0.9474 H   0  0  0  0  0  0  0  0  0  0  0  0
    0.5112    1.4167   -1.4637 H   0  0  0  0  0  0  0  0  0  0  0  0
   -0.1912   -0.1770   -1.8457 H   0  0  0  0  0  0  0  0  0  0  0  0
  1  2  2  0
  2  3  1  0
  2  4  1  0
  4  5  1  1
  4  6  1  0
  6  7  2  0
  7  8  1  0
  8  9  1  0
  8 10  1  0
 10 11  1  0
 10 12  1  0
 12  4  1  0
  3 13  1  0
  5 14  1  0
  6 15  1  0
  7 16  1  0
  8 17  1  6
  9 18  1  0
 10 19  1  1
 11 20  1  0
 12 21  1  0
 12 22  1  0
M  END
$$$$
