
     RDKit          3D

 24 25  0  0  0  0  0  0  0  0999 V2000
    3.4540    1.0743   -0.2615 N   0  0  0  0  0  0  0  0  0  0  0  0
    2.2764    0.5506   -0.2702 C   0  0  0  0  0  0  0  0  0  0  0  0
    2.1610   -0.8818   -0.3722 N   0  0  0  0  0  0  0  0  0  0  0  0
    0.9218   -1.4642    0.1088 C   0  0  2  0  0  0  0  0  0  0  0  0
    0.8145   -2.7999   -0.2054 O   0  0  0  0  0  0  0  0  0  0  0  0
   -0.2144   -0.6357   -0.4378 C   0  0  1  0  0  0  0  0  0  0  0  0
   -1.5067   -1.1995   -0.0831 N   0  0  0  0  0  0  0  0  0  0  0  0
   -2.4858   -0.3232    0.4537 C   0  0  0  0  0  0  0  0  0  0  0  0
   -3.3783   -0.8132    1.2151 O   0  0  0  0  0  0  0  0  0  0  0  0
   -2.5112    1.1338    0.1651 C   0  0  0  0  0  0  0  0  0  0  0  0
   -1.2063    1.5486   -0.2339 N   0  0  0  0  0  0  0  0  0  0  0  0
   -0.1421    0.7251    0.2357 C   0  0  2  0  0  0  0  0  0  0  0  0
    1.1174    1.3388   -0.1834 N   0  0  0  0  0  0  0  0  0  0  0  0
    3.5337    2.1109   -0.1876 H   0  0  0  0  0  0  0  0  0  0  0  0
    2.9436   -1.4272   -0.7731 H   0  0  0  0  0  0  0  0  0  0  0  0
    0.8598   -1.3719    1.2288 H   0  0  0  0  0  0  0  0  0  0  0  0
    1.4121   -3.2971    0.4223 H   0  0  0  0  0  0  0  0  0  0  0  0
   -0.1852   -0.5343   -1.5398 H   0  0  0  0  0  0  0  0  0  0  0  0
   -1.7397   -2.2061   -0.2054 H   0  0  0  0  0  0  0  0  0  0  0  0
   -3.2014    1.2846   -0.7148 H   0  0  0  0  0  0  0  0  0  0  0  0
   -2.9414    1.6979    0.9966 H   0  0  0  0  0  0  0  0  0  0  0  0
   -1.0331    2.5537   -0.2512 H   0  0  0  0  0  0  0  0  0  0  0  0
   -0.0987    0.5724    1.3104 H   0  0  0  0  0  0  0  0  0  0  0  0
    1.1497    2.3634   -0.4170 H   0  0  0  0  0  0  0  0  0  0  0  0
  1  2  2  3
  2  3  1  0
  3  4  1  0
  4  5  1  0
  4  6  1  0
  6  7  1  0
  7  8  1  0
  8  9  2  0
  8 10  1  0
 10 11  1  0
 11 12  1  0
 12 13  1  0
 13  2  1  0
 12  6  1  0
  1 14  1  0
  3 15  1  0
  4 16  1  1
  5 17  1  0
  6 18  1  6
  7 19  1  0
 10 20  1  0
 10 21  1  0
 11 22  1  0
 12 23  1  1
 13 24  1  0
M  END
$$$$

     RDKit          3D

 24 25  0  0  0  0  0  0  0  0999 V2000
   -3.3473    1.4576    0.2123 N   0  0  0  0  0  0  0  0  0  0  0  0
   -2.2776    0.7701    0.0374 C   0  0  0  0  0  0  0  0  0  0  0  0
   -2.2986   -0.6045   -0.2527 N   0  0  0  0  0  0  0  0  0  0  0  0
   -1.0926   -1.3684   -0.4912 C   0  0  2  0  0  0  0  0  0  0  0  0
   -1.2886   -2.6558   -0.0306 O   0  0  0  0  0  0  0  0  0  0  0  0
    0.1035   -0.6989    0.1255 C   0  0  1  0  0  0  0  0  0  0  0  0
    1.3127   -1.3668   -0.3706 N   0  0  0  0  0  0  0  0  0  0  0  0
    2.5102   -0.5938   -0.2910 C   0  0  0  0  0  0  0  0  0  0  0  0
    3.6151   -1.2081   -0.4811 O   0  0  0  0  0  0  0  0  0  0  0  0
    2.5713    0.8322   -0.0118 C   0  0  0  0  0  0  0  0  0  0  0  0
    1.3137    1.4339    0.0509 N   0  0  0  0  0  0  0  0  0  0  0  0
    0.1776    0.7256   -0.3529 C   0  0  2  0  0  0  0  0  0  0  0  0
   -1.0090    1.4118    0.1381 N   0  0  0  0  0  0  0  0  0  0  0  0
   -3.3081    2.4702    0.4254 H   0  0  0  0  0  0  0  0  0  0  0  0
   -3.2043   -1.0973   -0.2997 H   0  0  0  0  0  0  0  0  0  0  0  0
   -0.9222   -1.3903   -1.5915 H   0  0  0  0  0  0  0  0  0  0  0  0
   -0.9474   -2.8117    0.8735 H   0  0  0  0  0  0  0  0  0  0  0  0
    0.0991   -0.7181    1.2166 H   0  0  0  0  0  0  0  0  0  0  0  0
    1.3104   -2.3212   -0.7499 H   0  0  0  0  0  0  0  0  0  0  0  0
    3.2479    1.3024   -0.7771 H   0  0  0  0  0  0  0  0  0  0  0  0
    3.0952    0.9597    0.9801 H   0  0  0  0  0  0  0  0  0  0  0  0
    1.2295    2.3937    0.3395 H   0  0  0  0  0  0  0  0  0  0  0  0
    0.0920    0.7132   -1.4609 H   0  0  0  0  0  0  0  0  0  0  0  0
   -0.9825    2.3644    0.5674 H   0  0  0  0  0  0  0  0  0  0  0  0
  1  2  2  3
  2  3  1  0
  3  4  1  0
  4  5  1  0
  4  6  1  0
  6  7  1  0
  7  8  1  0
  8  9  2  0
  8 10  1  0
 10 11  1  0
 11 12  1  0
 12 13  1  0
 13  2  1  0
 12  6  1  0
  1 14  1  0
  3 15  1  0
  4 16  1  6
  5 17  1  0
  6 18  1  1
  7 19  1  0
 10 20  1  0
 10 21  1  0
 11 22  1  0
 12 23  1  6
 13 24  1  0
M  END
$$$$

     RDKit          3D

 24 25  0  0  0  0  0  0  0  0999 V2000
    3.4306   -1.0570   -0.4474 N   0  0  0  0  0  0  0  0  0  0  0  0
    2.2717   -0.5065   -0.4983 C   0  0  0  0  0  0  0  0  0  0  0  0
    2.1787    0.8971   -0.3696 N   0  0  0  0  0  0  0  0  0  0  0  0
    0.8901    1.5595   -0.2606 C   0  0  2  0  0  0  0  0  0  0  0  0
    1.0465    2.5586    0.7158 O   0  0  0  0  0  0  0  0  0  0  0  0
   -0.1152    0.5856    0.2539 C   0  0  1  0  0  0  0  0  0  0  0  0
   -1.4374    1.2222    0.2975 N   0  0  0  0  0  0  0  0  0  0  0  0
   -2.5257    0.3393    0.5082 C   0  0  0  0  0  0  0  0  0  0  0  0
   -3.6209    0.7978    0.9161 O   0  0  0  0  0  0  0  0  0  0  0  0
   -2.4264   -1.1050    0.2673 C   0  0  0  0  0  0  0  0  0  0  0  0
   -1.1682   -1.5748   -0.1580 N   0  0  0  0  0  0  0  0  0  0  0  0
   -0.2396   -0.6132   -0.6309 C   0  0  2  0  0  0  0  0  0  0  0  0
    1.0807   -1.2503   -0.6785 N   0  0  0  0  0  0  0  0  0  0  0  0
    3.5964   -2.0844   -0.5327 H   0  0  0  0  0  0  0  0  0  0  0  0
    3.0482    1.4730   -0.3521 H   0  0  0  0  0  0  0  0  0  0  0  0
    0.5680    2.0049   -1.2297 H   0  0  0  0  0  0  0  0  0  0  0  0
    1.4123    2.0964    1.5204 H   0  0  0  0  0  0  0  0  0  0  0  0
    0.1141    0.2806    1.2752 H   0  0  0  0  0  0  0  0  0  0  0  0
   -1.5476    2.2482    0.1802 H   0  0  0  0  0  0  0  0  0  0  0  0
   -3.2664   -1.3778   -0.4350 H   0  0  0  0  0  0  0  0  0  0  0  0
   -2.6905   -1.6232    1.2302 H   0  0  0  0  0  0  0  0  0  0  0  0
   -1.3114   -2.2915   -0.9139 H   0  0  0  0  0  0  0  0  0  0  0  0
   -0.4462   -0.2951   -1.6855 H   0  0  0  0  0  0  0  0  0  0  0  0
    1.1583   -2.2843   -0.8498 H   0  0  0  0  0  0  0  0  0  0  0  0
  1  2  2  3
  2  3  1  0
  3  4  1  0
  4  5  1  0
  4  6  1  0
  6  7  1  0
  7  8  1  0
  8  9  2  0
  8 10  1  0
 10 11  1  0
 11 12  1  0
 12 13  1  0
 13  2  1  0
 12  6  1  0
  1 14  1  0
  3 15  1  0
  4 16  1  6
  5 17  1  0
  6 18  1  1
  7 19  1  0
 10 20  1  0
 10 21  1  0
 11 22  1  0
 12 23  1  6
 13 24  1  0
M  END
$$$$

     RDKit          3D

 24 25  0  0  0  0  0  0  0  0999 V2000
   -3.0148    1.6975    0.7366 N   0  0  0  0  0  0  0  0  0  0  0  0
   -2.0737    0.9527    0.2668 C   0  0  0  0  0  0  0  0  0  0  0  0
   -2.2647   -0.4397    0.0629 N   0  0  0  0  0  0  0  0  0  0  0  0
   -1.1644   -1.1895   -0.4952 C   0  0  2  0  0  0  0  0  0  0  0  0
   -1.2786   -2.5563   -0.2986 O   0  0  0  0  0  0  0  0  0  0  0  0
    0.0929   -0.6182    0.0993 C   0  0  1  0  0  0  0  0  0  0  0  0
    1.2375   -1.4419   -0.0108 N   0  0  0  0  0  0  0  0  0  0  0  0
    2.5011   -0.8408    0.2149 C   0  0  0  0  0  0  0  0  0  0  0  0
    3.5805   -1.4711    0.2096 O   0  0  0  0  0  0  0  0  0  0  0  0
    2.4620    0.6446    0.4683 C   0  0  0  0  0  0  0  0  0  0  0  0
    1.5542    1.3133   -0.4038 N   0  0  0  0  0  0  0  0  0  0  0  0
    0.2650    0.7526   -0.5508 C   0  0  2  0  0  0  0  0  0  0  0  0
   -0.8103    1.5751   -0.0495 N   0  0  0  0  0  0  0  0  0  0  0  0
   -2.8684    2.7061    0.8815 H   0  0  0  0  0  0  0  0  0  0  0  0
   -3.1467   -0.9232    0.2961 H   0  0  0  0  0  0  0  0  0  0  0  0
   -1.1779   -0.9853   -1.5992 H   0  0  0  0  0  0  0  0  0  0  0  0
   -1.9670   -2.8184    0.3421 H   0  0  0  0  0  0  0  0  0  0  0  0
   -0.0587   -0.3932    1.1962 H   0  0  0  0  0  0  0  0  0  0  0  0
    1.1611   -2.4449   -0.2466 H   0  0  0  0  0  0  0  0  0  0  0  0
    2.1757    0.8579    1.5177 H   0  0  0  0  0  0  0  0  0  0  0  0
    3.4870    1.0116    0.2414 H   0  0  0  0  0  0  0  0  0  0  0  0
    2.0200    1.4406   -1.3385 H   0  0  0  0  0  0  0  0  0  0  0  0
    0.0266    0.5774   -1.6417 H   0  0  0  0  0  0  0  0  0  0  0  0
   -0.7383    2.5932    0.1012 H   0  0  0  0  0  0  0  0  0  0  0  0
  1  2  2  3
  2  3  1  0
  3  4  1  0
  4  5  1  0
  4  6  1  0
  6  7  1  0
  7  8  1  0
  8  9  2  0
  8 10  1  0
 10 11  1  0
 11 12  1  0
 12 13  1  0
 13  2  1  0
 12  6  1  0
  1 14  1  0
  3 15  1  0
  4 16  1  6
  5 17  1  0
  6 18  1  1
  7 19  1  0
 10 20  1  0
 10 21  1  0
 11 22  1  0
 12 23  1  6
 13 24  1  0
M  END
$$$$

     RDKit          3D

 24 25  0  0  0  0  0  0  0  0999 V2000
   -3.0826    1.4935   -0.2905 N   0  0  0  0  0  0  0  0  0  0  0  0
   -2.0574    0.7115   -0.4194 C   0  0  0  0  0  0  0  0  0  0  0  0
   -2.1742   -0.6924   -0.1577 N   0  0  0  0  0  0  0  0  0  0  0  0
   -1.0422   -1.4641    0.3266 C   0  0  2  0  0  0  0  0  0  0  0  0
   -1.4253   -1.9631    1.5850 O   0  0  0  0  0  0  0  0  0  0  0  0
    0.1319   -0.5504    0.4518 C   0  0  1  0  0  0  0  0  0  0  0  0
    1.3584   -1.1678    0.8065 N   0  0  0  0  0  0  0  0  0  0  0  0
    2.5581   -0.4375    0.6300 C   0  0  0  0  0  0  0  0  0  0  0  0
    3.6581   -0.8634    1.0425 O   0  0  0  0  0  0  0  0  0  0  0  0
    2.4498    0.8654   -0.0718 C   0  0  0  0  0  0  0  0  0  0  0  0
    1.5407    0.7006   -1.1575 N   0  0  0  0  0  0  0  0  0  0  0  0
    0.2549    0.2078   -0.8671 C   0  0  2  0  0  0  0  0  0  0  0  0
   -0.7894    1.2067   -0.8208 N   0  0  0  0  0  0  0  0  0  0  0  0
   -2.9504    2.5064   -0.4914 H   0  0  0  0  0  0  0  0  0  0  0  0
   -3.1175   -1.1501   -0.3299 H   0  0  0  0  0  0  0  0  0  0  0  0
   -0.8275   -2.3424   -0.3191 H   0  0  0  0  0  0  0  0  0  0  0  0
   -1.9588   -1.2359    2.0350 H   0  0  0  0  0  0  0  0  0  0  0  0
   -0.1211    0.1892    1.2646 H   0  0  0  0  0  0  0  0  0  0  0  0
    1.4102   -2.1281    1.1881 H   0  0  0  0  0  0  0  0  0  0  0  0
    3.4129    1.2163   -0.4695 H   0  0  0  0  0  0  0  0  0  0  0  0
    2.0342    1.6626    0.5991 H   0  0  0  0  0  0  0  0  0  0  0  0
    1.4813    1.5252   -1.7942 H   0  0  0  0  0  0  0  0  0  0  0  0
   -0.0514   -0.5012   -1.6936 H   0  0  0  0  0  0  0  0  0  0  0  0
   -0.6926    2.2113   -1.0467 H   0  0  0  0  0  0  0  0  0  0  0  0
  1  2  2  3
  2  3  1  0
  3  4  1  0
  4  5  1  0
  4  6  1  0
  6  7  1  0
  7  8  1  0
  8  9  2  0
  8 10  1  0
 10 11  1  0
 11 12  1  0
 12 13  1  0
 13  2  1  0
 12  6  1  0
  1 14  1  0
  3 15  1  0
  4 16  1  6
  5 17  1  0
  6 18  1  1
  7 19  1  0
 10 20  1  0
 10 21  1  0
 11 22  1  0
 12 23  1  6
 13 24  1  0
M  END
$$$$

     RDKit          3D

 24 25  0  0  0  0  0  0  0  0999 V2000
   -2.6156    2.2708    0.5068 N   0  0  0  0  0  0  0  0  0  0  0  0
   -1.8787    1.2760    0.1404 C   0  0  0  0  0  0  0  0  0  0  0  0
   -2.1630   -0.0648    0.5215 N   0  0  0  0  0  0  0  0  0  0  0  0
   -1.2515   -1.1696    0.2502 C   0  0  2  0  0  0  0  0  0  0  0  0
   -1.2861   -2.0831    1.3005 O   0  0  0  0  0  0  0  0  0  0  0  0
    0.1308   -0.5903    0.1860 C   0  0  1  0  0  0  0  0  0  0  0  0
    1.1718   -1.5789    0.0787 N   0  0  0  0  0  0  0  0  0  0  0  0
    2.4766   -1.0102   -0.1506 C   0  0  0  0  0  0  0  0  0  0  0  0
    3.5093   -1.7188   -0.2325 O   0  0  0  0  0  0  0  0  0  0  0  0
    2.4848    0.4736   -0.2792 C   0  0  0  0  0  0  0  0  0  0  0  0
    1.5160    0.8240   -1.2800 N   0  0  0  0  0  0  0  0  0  0  0  0
    0.2030    0.3636   -0.9663 C   0  0  2  0  0  0  0  0  0  0  0  0
   -0.7187    1.4646   -0.6805 N   0  0  0  0  0  0  0  0  0  0  0  0
   -3.4408    2.0442    1.1036 H   0  0  0  0  0  0  0  0  0  0  0  0
   -3.0719   -0.2441    1.0175 H   0  0  0  0  0  0  0  0  0  0  0  0
   -1.5383   -1.7124   -0.6604 H   0  0  0  0  0  0  0  0  0  0  0  0
   -1.4053   -1.6160    2.1848 H   0  0  0  0  0  0  0  0  0  0  0  0
    0.3005   -0.0370    1.1356 H   0  0  0  0  0  0  0  0  0  0  0  0
    1.0500   -2.5992    0.1508 H   0  0  0  0  0  0  0  0  0  0  0  0
    2.1993    0.8697    0.7310 H   0  0  0  0  0  0  0  0  0  0  0  0
    3.4855    0.8122   -0.5397 H   0  0  0  0  0  0  0  0  0  0  0  0
    1.5606    1.8171   -1.5774 H   0  0  0  0  0  0  0  0  0  0  0  0
   -0.1707   -0.2003   -1.8705 H   0  0  0  0  0  0  0  0  0  0  0  0
   -0.5477    2.4091   -1.0701 H   0  0  0  0  0  0  0  0  0  0  0  0
  1  2  2  3
  2  3  1  0
  3  4  1  0
  4  5  1  0
  4  6  1  0
  6  7  1  0
  7  8  1  0
  8  9  2  0
  8 10  1  0
 10 11  1  0
 11 12  1  0
 12 13  1  0
 13  2  1  0
 12  6  1  0
  1 14  1  0
  3 15  1  0
  4 16  1  6
  5 17  1  0
  6 18  1  1
  7 19  1  0
 10 20  1  0
 10 21  1  0
 11 22  1  0
 12 23  1  6
 13 24  1  0
M  END
$$$$

     RDKit          3D

 24 25  0  0  0  0  0  0  0  0999 V2000
   -3.6199    0.6313    0.2194 N   0  0  0  0  0  0  0  0  0  0  0  0
   -2.3946    0.2367    0.0706 C   0  0  0  0  0  0  0  0  0  0  0  0
   -2.1032   -1.1443   -0.0160 N   0  0  0  0  0  0  0  0  0  0  0  0
   -0.7486   -1.5603   -0.3723 C   0  0  2  0  0  0  0  0  0  0  0  0
   -0.5780   -2.8323    0.1864 O   0  0  0  0  0  0  0  0  0  0  0  0
    0.2297   -0.5871    0.2173 C   0  0  1  0  0  0  0  0  0  0  0  0
    1.5843   -0.9934   -0.1292 N   0  0  0  0  0  0  0  0  0  0  0  0
    2.5925    0.0065    0.0295 C   0  0  0  0  0  0  0  0  0  0  0  0
    3.7957   -0.3462    0.0566 O   0  0  0  0  0  0  0  0  0  0  0  0
    2.2698    1.4233    0.1611 C   0  0  0  0  0  0  0  0  0  0  0  0
    0.9125    1.7713    0.0485 N   0  0  0  0  0  0  0  0  0  0  0  0
    0.0116    0.7749   -0.3880 C   0  0  2  0  0  0  0  0  0  0  0  0
   -1.3407    1.1891   -0.0059 N   0  0  0  0  0  0  0  0  0  0  0  0
   -3.8792    1.6267    0.2872 H   0  0  0  0  0  0  0  0  0  0  0  0
   -2.8576   -1.8557    0.1752 H   0  0  0  0  0  0  0  0  0  0  0  0
   -0.6485   -1.5992   -1.4849 H   0  0  0  0  0  0  0  0  0  0  0  0
    0.3065   -3.2062    0.0120 H   0  0  0  0  0  0  0  0  0  0  0  0
    0.1416   -0.5735    1.3047 H   0  0  0  0  0  0  0  0  0  0  0  0
    1.8438   -1.9293   -0.4701 H   0  0  0  0  0  0  0  0  0  0  0  0
    2.8523    1.9773   -0.6312 H   0  0  0  0  0  0  0  0  0  0  0  0
    2.6708    1.8399    1.1303 H   0  0  0  0  0  0  0  0  0  0  0  0
    0.5451    2.3246    0.8268 H   0  0  0  0  0  0  0  0  0  0  0  0
   -0.0046    0.6465   -1.4926 H   0  0  0  0  0  0  0  0  0  0  0  0
   -1.5811    2.1794    0.2210 H   0  0  0  0  0  0  0  0  0  0  0  0
  1  2  2  3
  2  3  1  0
  3  4  1  0
  4  5  1  0
  4  6  1  0
  6  7  1  0
  7  8  1  0
  8  9  2  0
  8 10  1  0
 10 11  1  0
 11 12  1  0
 12 13  1  0
 13  2  1  0
 12  6  1  0
  1 14  1  0
  3 15  1  0
  4 16  1  6
  5 17  1  0
  6 18  1  1
  7 19  1  0
 10 20  1  0
 10 21  1  0
 11 22  1  0
 12 23  1  6
 13 24  1  0
M  END
$$$$

     RDKit          3D

 24 25  0  0  0  0  0  0  0  0999 V2000
   -3.5499    0.6423   -0.2918 N   0  0  0  0  0  0  0  0  0  0  0  0
   -2.3215    0.2620   -0.2821 C   0  0  0  0  0  0  0  0  0  0  0  0
   -1.9987   -1.1439   -0.3071 N   0  0  0  0  0  0  0  0  0  0  0  0
   -0.7014   -1.6461    0.0568 C   0  0  2  0  0  0  0  0  0  0  0  0
   -0.8528   -2.5864    1.1030 O   0  0  0  0  0  0  0  0  0  0  0  0
    0.2619   -0.5923    0.4691 C   0  0  1  0  0  0  0  0  0  0  0  0
    1.6162   -1.0504    0.1916 N   0  0  0  0  0  0  0  0  0  0  0  0
    2.6514   -0.0696    0.1117 C   0  0  0  0  0  0  0  0  0  0  0  0
    3.8389   -0.3720    0.3847 O   0  0  0  0  0  0  0  0  0  0  0  0
    2.3324    1.3425   -0.3015 C   0  0  0  0  0  0  0  0  0  0  0  0
    1.0357    1.6519    0.2944 N   0  0  0  0  0  0  0  0  0  0  0  0
    0.0875    0.7186   -0.2586 C   0  0  2  0  0  0  0  0  0  0  0  0
   -1.2590    1.1937   -0.2471 N   0  0  0  0  0  0  0  0  0  0  0  0
   -3.7592    1.6576   -0.2733 H   0  0  0  0  0  0  0  0  0  0  0  0
   -2.7203   -1.8329   -0.5970 H   0  0  0  0  0  0  0  0  0  0  0  0
   -0.3237   -2.2532   -0.8144 H   0  0  0  0  0  0  0  0  0  0  0  0
   -1.4040   -2.1955    1.8465 H   0  0  0  0  0  0  0  0  0  0  0  0
    0.1979   -0.4656    1.5723 H   0  0  0  0  0  0  0  0  0  0  0  0
    1.8632   -2.0526    0.0496 H   0  0  0  0  0  0  0  0  0  0  0  0
    3.0836    2.0457    0.0756 H   0  0  0  0  0  0  0  0  0  0  0  0
    2.2441    1.3877   -1.4029 H   0  0  0  0  0  0  0  0  0  0  0  0
    0.7700    2.6405    0.1696 H   0  0  0  0  0  0  0  0  0  0  0  0
    0.3488    0.5071   -1.3358 H   0  0  0  0  0  0  0  0  0  0  0  0
   -1.4411    2.2110   -0.2134 H   0  0  0  0  0  0  0  0  0  0  0  0
  1  2  2  3
  2  3  1  0
  3  4  1  0
  4  5  1  0
  4  6  1  0
  6  7  1  0
  7  8  1  0
  8  9  2  0
  8 10  1  0
 10 11  1  0
 11 12  1  0
 12 13  1  0
 13  2  1  0
 12  6  1  0
  1 14  1  0
  3 15  1  0
  4 16  1  6
  5 17  1  0
  6 18  1  1
  7 19  1  0
 10 20  1  0
 10 21  1  0
 11 22  1  0
 12 23  1  6
 13 24  1  0
M  END
$$$$
