
     RDKit          3D

 29 30  0  0  0  0  0  0  0  0999 V2000
   -3.7924    1.6810   -0.2030 N   0  0  0  0  0  0  0  0  0  0  0  0
   -2.5413    1.2127    0.3873 C   0  0  0  0  0  0  0  0  0  0  0  0
   -2.1460   -0.1361   -0.1527 C   0  0  0  0  0  0  0  0  0  0  0  0
   -0.8869   -0.5108    0.4597 N   0  0  0  0  0  0  0  0  0  0  0  0
   -0.6459   -1.9406    0.3011 C   0  0  0  0  0  0  0  0  0  0  0  0
    0.7305   -2.3186   -0.0910 C   0  0  0  0  0  0  0  0  0  0  0  0
    1.7902   -1.5217    0.4313 N   0  0  0  0  0  0  0  0  0  0  0  0
    1.4511   -0.1514    0.6480 C   0  0  1  0  0  0  0  0  0  0  0  0
    2.6198    0.7101    0.3307 C   0  0  0  0  0  0  0  0  0  0  0  0
    2.6917    1.8577   -0.4274 C   0  0  0  0  0  0  0  0  0  0  0  0
    3.9482    2.2242   -0.3715 O   0  0  0  0  0  0  0  0  0  0  0  0
    4.6408    1.4001    0.3548 N   0  0  0  0  0  0  0  0  0  0  0  0
    3.8382    0.4491    0.8014 N   0  0  0  0  0  0  0  0  0  0  0  0
    0.2234    0.2289   -0.1430 C   0  0  0  0  0  0  0  0  0  0  0  0
   -3.6666    2.6329   -0.6072 H   0  0  0  0  0  0  0  0  0  0  0  0
   -4.1100    0.9654   -0.8913 H   0  0  0  0  0  0  0  0  0  0  0  0
   -2.7413    1.0871    1.5048 H   0  0  0  0  0  0  0  0  0  0  0  0
   -1.7542    1.9756    0.2689 H   0  0  0  0  0  0  0  0  0  0  0  0
   -2.9426   -0.8607   -0.0169 H   0  0  0  0  0  0  0  0  0  0  0  0
   -1.9267   -0.0241   -1.2600 H   0  0  0  0  0  0  0  0  0  0  0  0
   -0.8488   -2.3837    1.3253 H   0  0  0  0  0  0  0  0  0  0  0  0
   -1.3685   -2.4021   -0.3959 H   0  0  0  0  0  0  0  0  0  0  0  0
    0.7726   -2.3462   -1.2069 H   0  0  0  0  0  0  0  0  0  0  0  0
    0.8946   -3.3842    0.2210 H   0  0  0  0  0  0  0  0  0  0  0  0
    2.2985   -1.9093    1.2355 H   0  0  0  0  0  0  0  0  0  0  0  0
    1.2181   -0.0191    1.7453 H   0  0  0  0  0  0  0  0  0  0  0  0
    1.8746    2.3069   -0.9307 H   0  0  0  0  0  0  0  0  0  0  0  0
    0.0194    1.2870   -0.0997 H   0  0  0  0  0  0  0  0  0  0  0  0
    0.3595   -0.1101   -1.1974 H   0  0  0  0  0  0  0  0  0  0  0  0
  1  2  1  0
  2  3  1  0
  3  4  1  0
  4  5  1  0
  5  6  1  0
  6  7  1  0
  7  8  1  0
  8  9  1  0
  9 10  2  0
 10 11  1  0
 11 12  1  0
 12 13  2  0
  8 14  1  0
 14  4  1  0
 13  9  1  0
  1 15  1  0
  1 16  1  0
  2 17  1  0
  2 18  1  0
  3 19  1  0
  3 20  1  0
  5 21  1  0
  5 22  1  0
  6 23  1  0
  6 24  1  0
  7 25  1  0
  8 26  1  1
 10 27  1  0
 14 28  1  0
 14 29  1  0
M  END
$$$$

     RDKit          3D

 29 30  0  0  0  0  0  0  0  0999 V2000
   -3.8431    1.5754   -0.2652 N   0  0  0  0  0  0  0  0  0  0  0  0
   -2.5873    1.1345    0.2986 C   0  0  0  0  0  0  0  0  0  0  0  0
   -2.1500   -0.1858   -0.3066 C   0  0  0  0  0  0  0  0  0  0  0  0
   -0.9112   -0.6547    0.2262 N   0  0  0  0  0  0  0  0  0  0  0  0
   -0.5865   -1.9095   -0.4116 C   0  0  0  0  0  0  0  0  0  0  0  0
    0.6921   -1.7815   -1.1923 C   0  0  0  0  0  0  0  0  0  0  0  0
    1.7580   -1.5211   -0.2252 N   0  0  0  0  0  0  0  0  0  0  0  0
    1.4384   -0.3798    0.5814 C   0  0  1  0  0  0  0  0  0  0  0  0
    2.6019    0.5526    0.5175 C   0  0  0  0  0  0  0  0  0  0  0  0
    3.2255    1.2369    1.5207 C   0  0  0  0  0  0  0  0  0  0  0  0
    4.1946    1.9236    0.9623 O   0  0  0  0  0  0  0  0  0  0  0  0
    4.1926    1.6949   -0.3143 N   0  0  0  0  0  0  0  0  0  0  0  0
    3.2266    0.8550   -0.6312 N   0  0  0  0  0  0  0  0  0  0  0  0
    0.1547    0.2985    0.1793 C   0  0  0  0  0  0  0  0  0  0  0  0
   -3.9663    1.2537   -1.2557 H   0  0  0  0  0  0  0  0  0  0  0  0
   -4.0053    2.5831   -0.1700 H   0  0  0  0  0  0  0  0  0  0  0  0
   -2.7449    1.0467    1.3976 H   0  0  0  0  0  0  0  0  0  0  0  0
   -1.8212    1.9196    0.1626 H   0  0  0  0  0  0  0  0  0  0  0  0
   -2.1938   -0.1141   -1.3963 H   0  0  0  0  0  0  0  0  0  0  0  0
   -2.9389   -0.9364   -0.0075 H   0  0  0  0  0  0  0  0  0  0  0  0
   -1.3717   -2.2622   -1.0883 H   0  0  0  0  0  0  0  0  0  0  0  0
   -0.3853   -2.6396    0.4144 H   0  0  0  0  0  0  0  0  0  0  0  0
    0.9256   -2.7231   -1.7169 H   0  0  0  0  0  0  0  0  0  0  0  0
    0.6584   -0.9216   -1.9067 H   0  0  0  0  0  0  0  0  0  0  0  0
    1.8720   -2.4072    0.3366 H   0  0  0  0  0  0  0  0  0  0  0  0
    1.3547   -0.7111    1.6334 H   0  0  0  0  0  0  0  0  0  0  0  0
    2.9611    1.2081    2.5645 H   0  0  0  0  0  0  0  0  0  0  0  0
   -0.0372    1.1012    0.9123 H   0  0  0  0  0  0  0  0  0  0  0  0
    0.2862    0.7638   -0.8197 H   0  0  0  0  0  0  0  0  0  0  0  0
  1  2  1  0
  2  3  1  0
  3  4  1  0
  4  5  1  0
  5  6  1  0
  6  7  1  0
  7  8  1  0
  8  9  1  0
  9 10  2  0
 10 11  1  0
 11 12  1  0
 12 13  2  0
  8 14  1  0
 14  4  1  0
 13  9  1  0
  1 15  1  0
  1 16  1  0
  2 17  1  0
  2 18  1  0
  3 19  1  0
  3 20  1  0
  5 21  1  0
  5 22  1  0
  6 23  1  0
  6 24  1  0
  7 25  1  0
  8 26  1  1
 10 27  1  0
 14 28  1  0
 14 29  1  0
M  END
$$$$

     RDKit          3D

 29 30  0  0  0  0  0  0  0  0999 V2000
   -2.2945   -1.6637    0.1462 N   0  0  0  0  0  0  0  0  0  0  0  0
   -2.8932   -0.4340    0.5813 C   0  0  0  0  0  0  0  0  0  0  0  0
   -2.1735    0.7608    0.0547 C   0  0  0  0  0  0  0  0  0  0  0  0
   -0.7906    0.8734    0.4554 N   0  0  0  0  0  0  0  0  0  0  0  0
   -0.3062    2.1228   -0.0766 C   0  0  0  0  0  0  0  0  0  0  0  0
    1.1635    2.2900   -0.1068 C   0  0  0  0  0  0  0  0  0  0  0  0
    1.7955    1.1480    0.5307 N   0  0  0  0  0  0  0  0  0  0  0  0
    1.3969   -0.0013   -0.2429 C   0  0  1  0  0  0  0  0  0  0  0  0
    2.2522   -1.1799   -0.0264 C   0  0  0  0  0  0  0  0  0  0  0  0
    2.7522   -2.0165   -1.0162 C   0  0  0  0  0  0  0  0  0  0  0  0
    3.4564   -2.9248   -0.4011 O   0  0  0  0  0  0  0  0  0  0  0  0
    3.4398   -2.7287    0.8830 N   0  0  0  0  0  0  0  0  0  0  0  0
    2.7075   -1.6651    1.1335 N   0  0  0  0  0  0  0  0  0  0  0  0
   -0.0675   -0.2690   -0.0094 C   0  0  0  0  0  0  0  0  0  0  0  0
   -2.5683   -1.8815   -0.8463 H   0  0  0  0  0  0  0  0  0  0  0  0
   -2.5791   -2.4724    0.7607 H   0  0  0  0  0  0  0  0  0  0  0  0
   -2.9269   -0.4432    1.6974 H   0  0  0  0  0  0  0  0  0  0  0  0
   -3.9527   -0.4537    0.1902 H   0  0  0  0  0  0  0  0  0  0  0  0
   -2.2317    0.7778   -1.0768 H   0  0  0  0  0  0  0  0  0  0  0  0
   -2.7476    1.6933    0.3330 H   0  0  0  0  0  0  0  0  0  0  0  0
   -0.7387    2.9246    0.5922 H   0  0  0  0  0  0  0  0  0  0  0  0
   -0.7314    2.3115   -1.0720 H   0  0  0  0  0  0  0  0  0  0  0  0
    1.5164    2.2771   -1.1657 H   0  0  0  0  0  0  0  0  0  0  0  0
    1.5489    3.2056    0.3736 H   0  0  0  0  0  0  0  0  0  0  0  0
    1.5494    1.0458    1.5336 H   0  0  0  0  0  0  0  0  0  0  0  0
    1.4916    0.3018   -1.3223 H   0  0  0  0  0  0  0  0  0  0  0  0
    2.5598   -1.8903   -2.0865 H   0  0  0  0  0  0  0  0  0  0  0  0
   -0.5062   -0.6537   -0.9475 H   0  0  0  0  0  0  0  0  0  0  0  0
   -0.1219   -1.0544    0.7644 H   0  0  0  0  0  0  0  0  0  0  0  0
  1  2  1  0
  2  3  1  0
  3  4  1  0
  4  5  1  0
  5  6  1  0
  6  7  1  0
  7  8  1  0
  8  9  1  0
  9 10  2  0
 10 11  1  0
 11 12  1  0
 12 13  2  0
  8 14  1  0
 14  4  1  0
 13  9  1  0
  1 15  1  0
  1 16  1  0
  2 17  1  0
  2 18  1  0
  3 19  1  0
  3 20  1  0
  5 21  1  0
  5 22  1  0
  6 23  1  0
  6 24  1  0
  7 25  1  0
  8 26  1  6
 10 27  1  0
 14 28  1  0
 14 29  1  0
M  END
$$$$

     RDKit          3D

 29 30  0  0  0  0  0  0  0  0999 V2000
   -2.7512    1.6203   -0.7516 N   0  0  0  0  0  0  0  0  0  0  0  0
   -2.1564    1.6601    0.5840 C   0  0  0  0  0  0  0  0  0  0  0  0
   -1.9134    0.2500    1.0619 C   0  0  0  0  0  0  0  0  0  0  0  0
   -1.0180   -0.3946    0.1369 N   0  0  0  0  0  0  0  0  0  0  0  0
   -0.7943   -1.7872    0.4549 C   0  0  0  0  0  0  0  0  0  0  0  0
   -0.0202   -2.3790   -0.6964 C   0  0  0  0  0  0  0  0  0  0  0  0
    1.2716   -1.7348   -0.8423 N   0  0  0  0  0  0  0  0  0  0  0  0
    1.4198   -0.6196    0.0663 C   0  0  1  0  0  0  0  0  0  0  0  0
    2.6285    0.1581   -0.2920 C   0  0  0  0  0  0  0  0  0  0  0  0
    2.7476    1.5383   -0.3750 C   0  0  0  0  0  0  0  0  0  0  0  0
    3.9877    1.7914   -0.7199 O   0  0  0  0  0  0  0  0  0  0  0  0
    4.6418    0.6742   -0.8561 N   0  0  0  0  0  0  0  0  0  0  0  0
    3.8443   -0.3233   -0.6039 N   0  0  0  0  0  0  0  0  0  0  0  0
    0.2304    0.3171   -0.0397 C   0  0  0  0  0  0  0  0  0  0  0  0
   -3.3777    2.4484   -0.8148 H   0  0  0  0  0  0  0  0  0  0  0  0
   -3.2302    0.7190   -0.9227 H   0  0  0  0  0  0  0  0  0  0  0  0
   -2.8624    2.1774    1.2766 H   0  0  0  0  0  0  0  0  0  0  0  0
   -1.2269    2.2290    0.4854 H   0  0  0  0  0  0  0  0  0  0  0  0
   -1.4172    0.3660    2.0719 H   0  0  0  0  0  0  0  0  0  0  0  0
   -2.8427   -0.2994    1.1978 H   0  0  0  0  0  0  0  0  0  0  0  0
   -1.8080   -2.2731    0.4476 H   0  0  0  0  0  0  0  0  0  0  0  0
   -0.3670   -1.9894    1.4301 H   0  0  0  0  0  0  0  0  0  0  0  0
   -0.6217   -2.2821   -1.6285 H   0  0  0  0  0  0  0  0  0  0  0  0
    0.1914   -3.4674   -0.5107 H   0  0  0  0  0  0  0  0  0  0  0  0
    1.4470   -1.4874   -1.8247 H   0  0  0  0  0  0  0  0  0  0  0  0
    1.4752   -1.0212    1.0992 H   0  0  0  0  0  0  0  0  0  0  0  0
    1.9416    2.2436   -0.1829 H   0  0  0  0  0  0  0  0  0  0  0  0
    0.2080    0.7918   -1.0348 H   0  0  0  0  0  0  0  0  0  0  0  0
    0.3724    1.0736    0.7408 H   0  0  0  0  0  0  0  0  0  0  0  0
  1  2  1  0
  2  3  1  0
  3  4  1  0
  4  5  1  0
  5  6  1  0
  6  7  1  0
  7  8  1  0
  8  9  1  0
  9 10  2  0
 10 11  1  0
 11 12  1  0
 12 13  2  0
  8 14  1  0
 14  4  1  0
 13  9  1  0
  1 15  1  0
  1 16  1  0
  2 17  1  0
  2 18  1  0
  3 19  1  0
  3 20  1  0
  5 21  1  0
  5 22  1  0
  6 23  1  0
  6 24  1  0
  7 25  1  0
  8 26  1  1
 10 27  1  0
 14 28  1  0
 14 29  1  0
M  END
$$$$

     RDKit          3D

 29 30  0  0  0  0  0  0  0  0999 V2000
   -2.3610    1.5802    1.1815 N   0  0  0  0  0  0  0  0  0  0  0  0
   -3.0038    0.4569    0.5477 C   0  0  0  0  0  0  0  0  0  0  0  0
   -2.2782   -0.1280   -0.6138 C   0  0  0  0  0  0  0  0  0  0  0  0
   -0.9757   -0.6487   -0.3633 N   0  0  0  0  0  0  0  0  0  0  0  0
   -0.5325   -1.2372   -1.6532 C   0  0  0  0  0  0  0  0  0  0  0  0
    0.9485   -1.5073   -1.6194 C   0  0  0  0  0  0  0  0  0  0  0  0
    1.4639   -1.6840   -0.2708 N   0  0  0  0  0  0  0  0  0  0  0  0
    1.2119   -0.5340    0.5355 C   0  0  1  0  0  0  0  0  0  0  0  0
    2.3598    0.3510    0.7447 C   0  0  0  0  0  0  0  0  0  0  0  0
    2.7493    0.9396    1.9253 C   0  0  0  0  0  0  0  0  0  0  0  0
    3.8215    1.6409    1.6434 O   0  0  0  0  0  0  0  0  0  0  0  0
    4.1349    1.5389    0.3810 N   0  0  0  0  0  0  0  0  0  0  0  0
    3.2449    0.7481   -0.1878 N   0  0  0  0  0  0  0  0  0  0  0  0
    0.0430    0.2929   -0.0285 C   0  0  0  0  0  0  0  0  0  0  0  0
   -3.0093    2.3910    1.2645 H   0  0  0  0  0  0  0  0  0  0  0  0
   -2.0505    1.3762    2.1688 H   0  0  0  0  0  0  0  0  0  0  0  0
   -3.2725   -0.3351    1.3139 H   0  0  0  0  0  0  0  0  0  0  0  0
   -4.0204    0.8237    0.2141 H   0  0  0  0  0  0  0  0  0  0  0  0
   -2.3022    0.5622   -1.4923 H   0  0  0  0  0  0  0  0  0  0  0  0
   -2.8994   -1.0089   -0.9592 H   0  0  0  0  0  0  0  0  0  0  0  0
   -0.7006   -0.4210   -2.4025 H   0  0  0  0  0  0  0  0  0  0  0  0
   -1.1442   -2.1251   -1.8931 H   0  0  0  0  0  0  0  0  0  0  0  0
    1.1785   -2.4192   -2.1816 H   0  0  0  0  0  0  0  0  0  0  0  0
    1.5161   -0.6655   -2.0929 H   0  0  0  0  0  0  0  0  0  0  0  0
    2.4918   -1.8127   -0.3679 H   0  0  0  0  0  0  0  0  0  0  0  0
    0.8435   -0.8826    1.5290 H   0  0  0  0  0  0  0  0  0  0  0  0
    2.2879    0.8567    2.8914 H   0  0  0  0  0  0  0  0  0  0  0  0
    0.4304    0.8171   -0.9364 H   0  0  0  0  0  0  0  0  0  0  0  0
   -0.1756    1.0336    0.7219 H   0  0  0  0  0  0  0  0  0  0  0  0
  1  2  1  0
  2  3  1  0
  3  4  1  0
  4  5  1  0
  5  6  1  0
  6  7  1  0
  7  8  1  0
  8  9  1  0
  9 10  2  0
 10 11  1  0
 11 12  1  0
 12 13  2  0
  8 14  1  0
 14  4  1  0
 13  9  1  0
  1 15  1  0
  1 16  1  0
  2 17  1  0
  2 18  1  0
  3 19  1  0
  3 20  1  0
  5 21  1  0
  5 22  1  0
  6 23  1  0
  6 24  1  0
  7 25  1  0
  8 26  1  1
 10 27  1  0
 14 28  1  0
 14 29  1  0
M  END
$$$$

     RDKit          3D

 29 30  0  0  0  0  0  0  0  0999 V2000
   -3.7116   -0.4371   -0.3976 N   0  0  0  0  0  0  0  0  0  0  0  0
   -3.1035    0.8258   -0.6308 C   0  0  0  0  0  0  0  0  0  0  0  0
   -1.6310    0.7802   -0.9363 C   0  0  0  0  0  0  0  0  0  0  0  0
   -0.8538    0.2457    0.0908 N   0  0  0  0  0  0  0  0  0  0  0  0
   -0.8906   -1.1087    0.4335 C   0  0  0  0  0  0  0  0  0  0  0  0
    0.1694   -1.8873   -0.3445 C   0  0  0  0  0  0  0  0  0  0  0  0
    1.1658   -0.9406   -0.8289 N   0  0  0  0  0  0  0  0  0  0  0  0
    1.5042   -0.0931    0.3028 C   0  0  1  0  0  0  0  0  0  0  0  0
    2.7791    0.6076    0.1429 C   0  0  0  0  0  0  0  0  0  0  0  0
    3.9723    0.1358   -0.3022 C   0  0  0  0  0  0  0  0  0  0  0  0
    4.8512    1.1328   -0.2770 O   0  0  0  0  0  0  0  0  0  0  0  0
    4.2374    2.1838    0.1635 N   0  0  0  0  0  0  0  0  0  0  0  0
    2.9788    1.9112    0.4306 N   0  0  0  0  0  0  0  0  0  0  0  0
    0.3692    0.9361    0.3840 C   0  0  0  0  0  0  0  0  0  0  0  0
   -4.2600   -0.5317    0.4808 H   0  0  0  0  0  0  0  0  0  0  0  0
   -4.2254   -0.8209   -1.2286 H   0  0  0  0  0  0  0  0  0  0  0  0
   -3.6659    1.3929   -1.4355 H   0  0  0  0  0  0  0  0  0  0  0  0
   -3.2796    1.4646    0.2903 H   0  0  0  0  0  0  0  0  0  0  0  0
   -1.3006    1.8057   -1.2539 H   0  0  0  0  0  0  0  0  0  0  0  0
   -1.5006    0.1529   -1.8769 H   0  0  0  0  0  0  0  0  0  0  0  0
   -1.8819   -1.5485    0.3067 H   0  0  0  0  0  0  0  0  0  0  0  0
   -0.6628   -1.1940    1.5297 H   0  0  0  0  0  0  0  0  0  0  0  0
    0.6862   -2.5974    0.3065 H   0  0  0  0  0  0  0  0  0  0  0  0
   -0.3526   -2.4262   -1.1540 H   0  0  0  0  0  0  0  0  0  0  0  0
    1.9900   -1.4631   -1.2106 H   0  0  0  0  0  0  0  0  0  0  0  0
    1.4999   -0.7579    1.1972 H   0  0  0  0  0  0  0  0  0  0  0  0
    4.1718   -0.8702   -0.6203 H   0  0  0  0  0  0  0  0  0  0  0  0
    0.3313    1.3931    1.3824 H   0  0  0  0  0  0  0  0  0  0  0  0
    0.6133    1.7087   -0.3816 H   0  0  0  0  0  0  0  0  0  0  0  0
  1  2  1  0
  2  3  1  0
  3  4  1  0
  4  5  1  0
  5  6  1  0
  6  7  1  0
  7  8  1  0
  8  9  1  0
  9 10  2  0
 10 11  1  0
 11 12  1  0
 12 13  2  0
  8 14  1  0
 14  4  1  0
 13  9  1  0
  1 15  1  0
  1 16  1  0
  2 17  1  0
  2 18  1  0
  3 19  1  0
  3 20  1  0
  5 21  1  0
  5 22  1  0
  6 23  1  0
  6 24  1  0
  7 25  1  0
  8 26  1  1
 10 27  1  0
 14 28  1  0
 14 29  1  0
M  END
$$$$

     RDKit          3D

 29 30  0  0  0  0  0  0  0  0999 V2000
    3.7369   -1.5261   -0.3016 N   0  0  0  0  0  0  0  0  0  0  0  0
    2.3837   -1.1696   -0.6311 C   0  0  0  0  0  0  0  0  0  0  0  0
    2.1332    0.2524   -0.2005 C   0  0  0  0  0  0  0  0  0  0  0  0
    0.7773    0.6771   -0.5060 N   0  0  0  0  0  0  0  0  0  0  0  0
    0.6197    2.0185   -0.0732 C   0  0  0  0  0  0  0  0  0  0  0  0
   -0.7682    2.3642    0.3819 C   0  0  0  0  0  0  0  0  0  0  0  0
   -1.6741    1.5275   -0.4237 N   0  0  0  0  0  0  0  0  0  0  0  0
   -1.5361    0.1980    0.1928 C   0  0  1  0  0  0  0  0  0  0  0  0
   -2.5853   -0.7181   -0.2316 C   0  0  0  0  0  0  0  0  0  0  0  0
   -2.4915   -2.0321   -0.6332 C   0  0  0  0  0  0  0  0  0  0  0  0
   -3.7116   -2.4433   -0.9210 O   0  0  0  0  0  0  0  0  0  0  0  0
   -4.5646   -1.4810   -0.7287 N   0  0  0  0  0  0  0  0  0  0  0  0
   -3.8934   -0.4169   -0.3065 N   0  0  0  0  0  0  0  0  0  0  0  0
   -0.1502   -0.2688   -0.0059 C   0  0  0  0  0  0  0  0  0  0  0  0
    3.8487   -2.5445   -0.0810 H   0  0  0  0  0  0  0  0  0  0  0  0
    4.1570   -0.9168    0.4345 H   0  0  0  0  0  0  0  0  0  0  0  0
    2.2859   -1.2252   -1.7374 H   0  0  0  0  0  0  0  0  0  0  0  0
    1.6932   -1.8922   -0.1588 H   0  0  0  0  0  0  0  0  0  0  0  0
    2.3779    0.3929    0.8670 H   0  0  0  0  0  0  0  0  0  0  0  0
    2.8384    0.8906   -0.7907 H   0  0  0  0  0  0  0  0  0  0  0  0
    0.8367    2.6865   -0.9582 H   0  0  0  0  0  0  0  0  0  0  0  0
    1.3465    2.3365    0.7042 H   0  0  0  0  0  0  0  0  0  0  0  0
   -0.8419    2.0397    1.4592 H   0  0  0  0  0  0  0  0  0  0  0  0
   -1.0154    3.4218    0.3184 H   0  0  0  0  0  0  0  0  0  0  0  0
   -2.6572    1.8696   -0.3421 H   0  0  0  0  0  0  0  0  0  0  0  0
   -1.6830    0.3953    1.2953 H   0  0  0  0  0  0  0  0  0  0  0  0
   -1.5954   -2.5950   -0.6941 H   0  0  0  0  0  0  0  0  0  0  0  0
    0.2733   -0.6874    0.9533 H   0  0  0  0  0  0  0  0  0  0  0  0
   -0.1405   -1.1536   -0.7071 H   0  0  0  0  0  0  0  0  0  0  0  0
  1  2  1  0
  2  3  1  0
  3  4  1  0
  4  5  1  0
  5  6  1  0
  6  7  1  0
  7  8  1  0
  8  9  1  0
  9 10  2  0
 10 11  1  0
 11 12  1  0
 12 13  2  0
  8 14  1  0
 14  4  1  0
 13  9  1  0
  1 15  1  0
  1 16  1  0
  2 17  1  0
  2 18  1  0
  3 19  1  0
  3 20  1  0
  5 21  1  0
  5 22  1  0
  6 23  1  0
  6 24  1  0
  7 25  1  0
  8 26  1  1
 10 27  1  0
 14 28  1  0
 14 29  1  0
M  END
$$$$

     RDKit          3D

 29 30  0  0  0  0  0  0  0  0999 V2000
    4.2387    0.9465    0.6124 N   0  0  0  0  0  0  0  0  0  0  0  0
    3.1859    0.3020   -0.1090 C   0  0  0  0  0  0  0  0  0  0  0  0
    1.8455    0.6525    0.4697 C   0  0  0  0  0  0  0  0  0  0  0  0
    0.7601   -0.0114   -0.2679 N   0  0  0  0  0  0  0  0  0  0  0  0
    0.8182   -1.4290   -0.0330 C   0  0  0  0  0  0  0  0  0  0  0  0
   -0.5059   -2.0365    0.2918 C   0  0  0  0  0  0  0  0  0  0  0  0
   -1.5898   -1.5363   -0.4842 N   0  0  0  0  0  0  0  0  0  0  0  0
   -1.6064   -0.1087   -0.6080 C   0  0  1  0  0  0  0  0  0  0  0  0
   -2.9178    0.4174   -0.1332 C   0  0  0  0  0  0  0  0  0  0  0  0
   -3.0650    1.5351    0.6698 C   0  0  0  0  0  0  0  0  0  0  0  0
   -4.3573    1.6503    0.8594 O   0  0  0  0  0  0  0  0  0  0  0  0
   -5.0064    0.6940    0.2370 N   0  0  0  0  0  0  0  0  0  0  0  0
   -4.1364   -0.0998   -0.3965 N   0  0  0  0  0  0  0  0  0  0  0  0
   -0.4885    0.5377    0.1843 C   0  0  0  0  0  0  0  0  0  0  0  0
    4.0472    0.9328    1.6293 H   0  0  0  0  0  0  0  0  0  0  0  0
    4.4985    1.8659    0.2437 H   0  0  0  0  0  0  0  0  0  0  0  0
    3.3849   -0.7847   -0.0873 H   0  0  0  0  0  0  0  0  0  0  0  0
    3.1836    0.6948   -1.1631 H   0  0  0  0  0  0  0  0  0  0  0  0
    1.7500    0.3092    1.5226 H   0  0  0  0  0  0  0  0  0  0  0  0
    1.6677    1.7400    0.4762 H   0  0  0  0  0  0  0  0  0  0  0  0
    1.4803   -1.6358    0.8603 H   0  0  0  0  0  0  0  0  0  0  0  0
    1.3294   -1.9074   -0.8761 H   0  0  0  0  0  0  0  0  0  0  0  0
   -0.4115   -3.1464    0.1158 H   0  0  0  0  0  0  0  0  0  0  0  0
   -0.7016   -1.9541    1.3932 H   0  0  0  0  0  0  0  0  0  0  0  0
   -2.4944   -1.8804   -0.1398 H   0  0  0  0  0  0  0  0  0  0  0  0
   -1.4573    0.1561   -1.6726 H   0  0  0  0  0  0  0  0  0  0  0  0
   -2.2790    2.1908    1.0682 H   0  0  0  0  0  0  0  0  0  0  0  0
   -0.5387    1.6162    0.0063 H   0  0  0  0  0  0  0  0  0  0  0  0
   -0.6342    0.2892    1.2395 H   0  0  0  0  0  0  0  0  0  0  0  0
  1  2  1  0
  2  3  1  0
  3  4  1  0
  4  5  1  0
  5  6  1  0
  6  7  1  0
  7  8  1  0
  8  9  1  0
  9 10  2  0
 10 11  1  0
 11 12  1  0
 12 13  2  0
  8 14  1  0
 14  4  1  0
 13  9  1  0
  1 15  1  0
  1 16  1  0
  2 17  1  0
  2 18  1  0
  3 19  1  0
  3 20  1  0
  5 21  1  0
  5 22  1  0
  6 23  1  0
  6 24  1  0
  7 25  1  0
  8 26  1  6
 10 27  1  0
 14 28  1  0
 14 29  1  0
M  END
$$$$
