
     RDKit          3D

 27 28  0  0  0  0  0  0  0  0999 V2000
    3.1173    1.9756    0.1864 O   0  0  0  0  0  0  0  0  0  0  0  0
    2.4631    0.9382   -0.0831 C   0  0  0  0  0  0  0  0  0  0  0  0
    1.7644    0.8794   -1.3795 C   0  0  0  0  0  0  0  0  0  0  0  0
    0.2914    0.8322   -1.1598 C   0  0  0  0  0  0  0  0  0  0  0  0
   -0.2170   -0.2990   -0.4849 N   0  0  0  0  0  0  0  0  0  0  0  0
   -1.2829    0.0201    0.4005 C   0  0  0  0  0  0  0  0  0  0  0  0
   -2.3505   -1.0214    0.5914 C   0  0  0  0  0  0  0  0  0  0  0  0
   -3.3547    0.0339    0.4717 N   0  0  0  0  0  0  0  0  0  0  0  0
   -2.3959    0.7202   -0.3996 C   0  0  0  0  0  0  0  0  0  0  0  0
    0.6907   -1.2911   -0.0670 C   0  0  0  0  0  0  0  0  0  0  0  0
    1.4226   -0.9829    1.2135 C   0  0  0  0  0  0  0  0  0  0  0  0
    2.5034   -0.0420    0.9458 N   0  0  0  0  0  0  0  0  0  0  0  0
    2.1376    0.0712   -2.0391 H   0  0  0  0  0  0  0  0  0  0  0  0
    1.9931    1.8262   -1.9291 H   0  0  0  0  0  0  0  0  0  0  0  0
   -0.1949    0.9548   -2.1704 H   0  0  0  0  0  0  0  0  0  0  0  0
    0.0088    1.7304   -0.5521 H   0  0  0  0  0  0  0  0  0  0  0  0
   -1.0336    0.6344    1.2996 H   0  0  0  0  0  0  0  0  0  0  0  0
   -2.3744   -1.7025   -0.2810 H   0  0  0  0  0  0  0  0  0  0  0  0
   -2.3366   -1.5273    1.5837 H   0  0  0  0  0  0  0  0  0  0  0  0
   -3.3905    0.5534    1.3772 H   0  0  0  0  0  0  0  0  0  0  0  0
   -2.4039    1.8111   -0.3181 H   0  0  0  0  0  0  0  0  0  0  0  0
   -2.4712    0.2965   -1.4278 H   0  0  0  0  0  0  0  0  0  0  0  0
    1.3774   -1.5213   -0.9179 H   0  0  0  0  0  0  0  0  0  0  0  0
    0.1364   -2.2425    0.1070 H   0  0  0  0  0  0  0  0  0  0  0  0
    0.7024   -0.5886    1.9321 H   0  0  0  0  0  0  0  0  0  0  0  0
    1.8599   -1.9517    1.5511 H   0  0  0  0  0  0  0  0  0  0  0  0
    3.3376   -0.1074    1.5495 H   0  0  0  0  0  0  0  0  0  0  0  0
  1  2  2  0
  2  3  1  0
  3  4  1  0
  4  5  1  0
  5  6  1  0
  6  7  1  0
  7  8  1  0
  8  9  1  0
  5 10  1  0
 10 11  1  0
 11 12  1  0
 12  2  1  0
  9  6  1  0
  3 13  1  0
  3 14  1  0
  4 15  1  0
  4 16  1  0
  6 17  1  0
  7 18  1  0
  7 19  1  0
  8 20  1  0
  9 21  1  0
  9 22  1  0
 10 23  1  0
 10 24  1  0
 11 25  1  0
 11 26  1  0
 12 27  1  0
M  END
$$$$

     RDKit          3D

 27 28  0  0  0  0  0  0  0  0999 V2000
    3.8657   -0.8927    0.8927 O   0  0  0  0  0  0  0  0  0  0  0  0
    2.7852   -0.4544    0.4642 C   0  0  0  0  0  0  0  0  0  0  0  0
    1.8388   -1.4637   -0.0442 C   0  0  0  0  0  0  0  0  0  0  0  0
    0.4964   -1.1521    0.5541 C   0  0  0  0  0  0  0  0  0  0  0  0
   -0.1389   -0.0008    0.0804 N   0  0  0  0  0  0  0  0  0  0  0  0
   -1.4435   -0.3318   -0.4413 C   0  0  0  0  0  0  0  0  0  0  0  0
   -2.4103   -0.8741    0.6171 C   0  0  0  0  0  0  0  0  0  0  0  0
   -3.4717   -0.2105   -0.1619 N   0  0  0  0  0  0  0  0  0  0  0  0
   -2.4450    0.7704   -0.5561 C   0  0  0  0  0  0  0  0  0  0  0  0
    0.5115    0.8994   -0.7725 C   0  0  0  0  0  0  0  0  0  0  0  0
    1.5956    1.7403   -0.1038 C   0  0  0  0  0  0  0  0  0  0  0  0
    2.6131    0.9409    0.5224 N   0  0  0  0  0  0  0  0  0  0  0  0
    1.8366   -1.3905   -1.1564 H   0  0  0  0  0  0  0  0  0  0  0  0
    2.1160   -2.5032    0.2041 H   0  0  0  0  0  0  0  0  0  0  0  0
   -0.1053   -2.0958    0.5010 H   0  0  0  0  0  0  0  0  0  0  0  0
    0.6816   -1.0350    1.6672 H   0  0  0  0  0  0  0  0  0  0  0  0
   -1.4449   -0.9999   -1.3305 H   0  0  0  0  0  0  0  0  0  0  0  0
   -2.2907   -0.2957    1.5541 H   0  0  0  0  0  0  0  0  0  0  0  0
   -2.4650   -1.9502    0.6822 H   0  0  0  0  0  0  0  0  0  0  0  0
   -4.2360    0.1991    0.4078 H   0  0  0  0  0  0  0  0  0  0  0  0
   -2.6686    1.0447   -1.6092 H   0  0  0  0  0  0  0  0  0  0  0  0
   -2.3610    1.5995    0.1440 H   0  0  0  0  0  0  0  0  0  0  0  0
    0.8622    0.4914   -1.7446 H   0  0  0  0  0  0  0  0  0  0  0  0
   -0.2542    1.6689   -1.0884 H   0  0  0  0  0  0  0  0  0  0  0  0
    1.1601    2.5089    0.5624 H   0  0  0  0  0  0  0  0  0  0  0  0
    2.0866    2.3023   -0.9288 H   0  0  0  0  0  0  0  0  0  0  0  0
    3.2856    1.4848    1.0841 H   0  0  0  0  0  0  0  0  0  0  0  0
  1  2  2  0
  2  3  1  0
  3  4  1  0
  4  5  1  0
  5  6  1  0
  6  7  1  0
  7  8  1  0
  8  9  1  0
  5 10  1  0
 10 11  1  0
 11 12  1  0
 12  2  1  0
  9  6  1  0
  3 13  1  0
  3 14  1  0
  4 15  1  0
  4 16  1  0
  6 17  1  0
  7 18  1  0
  7 19  1  0
  8 20  1  0
  9 21  1  0
  9 22  1  0
 10 23  1  0
 10 24  1  0
 11 25  1  0
 11 26  1  0
 12 27  1  0
M  END
$$$$

     RDKit          3D

 27 28  0  0  0  0  0  0  0  0999 V2000
   -3.7716   -0.9215    0.9301 O   0  0  0  0  0  0  0  0  0  0  0  0
   -2.7504   -0.4896    0.3357 C   0  0  0  0  0  0  0  0  0  0  0  0
   -1.7356   -1.4934    0.0129 C   0  0  0  0  0  0  0  0  0  0  0  0
   -0.3305   -1.1150   -0.0025 C   0  0  0  0  0  0  0  0  0  0  0  0
    0.1230    0.1639   -0.2683 N   0  0  0  0  0  0  0  0  0  0  0  0
    1.5308    0.3244   -0.3162 C   0  0  0  0  0  0  0  0  0  0  0  0
    2.2980    0.0609    0.9592 C   0  0  0  0  0  0  0  0  0  0  0  0
    3.4271   -0.2617    0.0636 N   0  0  0  0  0  0  0  0  0  0  0  0
    2.3808   -0.8179   -0.8195 C   0  0  0  0  0  0  0  0  0  0  0  0
   -0.4504    1.3146    0.2707 C   0  0  0  0  0  0  0  0  0  0  0  0
   -1.7063    1.6588   -0.5466 C   0  0  0  0  0  0  0  0  0  0  0  0
   -2.7580    0.9029    0.0784 N   0  0  0  0  0  0  0  0  0  0  0  0
   -1.9067   -2.3568    0.7156 H   0  0  0  0  0  0  0  0  0  0  0  0
   -2.0636   -1.9296   -0.9836 H   0  0  0  0  0  0  0  0  0  0  0  0
    0.1516   -1.4810    0.9336 H   0  0  0  0  0  0  0  0  0  0  0  0
    0.1671   -1.7824   -0.7870 H   0  0  0  0  0  0  0  0  0  0  0  0
    1.8985    1.2810   -0.7653 H   0  0  0  0  0  0  0  0  0  0  0  0
    1.9470   -0.8168    1.5299 H   0  0  0  0  0  0  0  0  0  0  0  0
    2.5099    0.9607    1.5770 H   0  0  0  0  0  0  0  0  0  0  0  0
    3.7425    0.6420   -0.3552 H   0  0  0  0  0  0  0  0  0  0  0  0
    2.7393   -0.7544   -1.8570 H   0  0  0  0  0  0  0  0  0  0  0  0
    2.1526   -1.8241   -0.4222 H   0  0  0  0  0  0  0  0  0  0  0  0
   -0.7154    1.1520    1.3495 H   0  0  0  0  0  0  0  0  0  0  0  0
    0.2109    2.1757    0.1581 H   0  0  0  0  0  0  0  0  0  0  0  0
   -1.9009    2.7444   -0.5644 H   0  0  0  0  0  0  0  0  0  0  0  0
   -1.5946    1.2516   -1.5938 H   0  0  0  0  0  0  0  0  0  0  0  0
   -3.5950    1.4112    0.3674 H   0  0  0  0  0  0  0  0  0  0  0  0
  1  2  2  0
  2  3  1  0
  3  4  1  0
  4  5  1  0
  5  6  1  0
  6  7  1  0
  7  8  1  0
  8  9  1  0
  5 10  1  0
 10 11  1  0
 11 12  1  0
 12  2  1  0
  9  6  1  0
  3 13  1  0
  3 14  1  0
  4 15  1  0
  4 16  1  0
  6 17  1  0
  7 18  1  0
  7 19  1  0
  8 20  1  0
  9 21  1  0
  9 22  1  0
 10 23  1  0
 10 24  1  0
 11 25  1  0
 11 26  1  0
 12 27  1  0
M  END
$$$$

     RDKit          3D

 27 28  0  0  0  0  0  0  0  0999 V2000
   -3.5226   -0.0963    1.6100 O   0  0  0  0  0  0  0  0  0  0  0  0
   -2.5745   -0.2192    0.7642 C   0  0  0  0  0  0  0  0  0  0  0  0
   -1.6133   -1.3281    0.9533 C   0  0  0  0  0  0  0  0  0  0  0  0
   -0.2233   -0.7626    0.9503 C   0  0  0  0  0  0  0  0  0  0  0  0
    0.2275   -0.4603   -0.3305 N   0  0  0  0  0  0  0  0  0  0  0  0
    1.4682    0.1707   -0.4921 C   0  0  0  0  0  0  0  0  0  0  0  0
    2.7024   -0.5458   -0.0347 C   0  0  0  0  0  0  0  0  0  0  0  0
    3.2224    0.7614    0.3982 N   0  0  0  0  0  0  0  0  0  0  0  0
    1.8527    1.3009    0.4084 C   0  0  0  0  0  0  0  0  0  0  0  0
   -0.7027   -0.3554   -1.3895 C   0  0  0  0  0  0  0  0  0  0  0  0
   -1.5484    0.9166   -1.3159 C   0  0  0  0  0  0  0  0  0  0  0  0
   -2.5533    0.7423   -0.2802 N   0  0  0  0  0  0  0  0  0  0  0  0
   -1.8489   -1.7879    1.9582 H   0  0  0  0  0  0  0  0  0  0  0  0
   -1.7542   -2.1541    0.2279 H   0  0  0  0  0  0  0  0  0  0  0  0
   -0.2052    0.0836    1.6492 H   0  0  0  0  0  0  0  0  0  0  0  0
    0.4445   -1.5458    1.4085 H   0  0  0  0  0  0  0  0  0  0  0  0
    1.6093    0.5011   -1.5638 H   0  0  0  0  0  0  0  0  0  0  0  0
    3.3177   -0.9442   -0.8704 H   0  0  0  0  0  0  0  0  0  0  0  0
    2.5503   -1.2622    0.7884 H   0  0  0  0  0  0  0  0  0  0  0  0
    3.6238    0.6475    1.3541 H   0  0  0  0  0  0  0  0  0  0  0  0
    1.4290    1.2793    1.4287 H   0  0  0  0  0  0  0  0  0  0  0  0
    1.8233    2.3116   -0.0781 H   0  0  0  0  0  0  0  0  0  0  0  0
   -0.1208   -0.2569   -2.3462 H   0  0  0  0  0  0  0  0  0  0  0  0
   -1.3657   -1.2212   -1.5432 H   0  0  0  0  0  0  0  0  0  0  0  0
   -2.0495    1.0764   -2.2886 H   0  0  0  0  0  0  0  0  0  0  0  0
   -0.8549    1.7440   -1.0393 H   0  0  0  0  0  0  0  0  0  0  0  0
   -3.3336    1.4045   -0.3272 H   0  0  0  0  0  0  0  0  0  0  0  0
  1  2  2  0
  2  3  1  0
  3  4  1  0
  4  5  1  0
  5  6  1  0
  6  7  1  0
  7  8  1  0
  8  9  1  0
  5 10  1  0
 10 11  1  0
 11 12  1  0
 12  2  1  0
  9  6  1  0
  3 13  1  0
  3 14  1  0
  4 15  1  0
  4 16  1  0
  6 17  1  0
  7 18  1  0
  7 19  1  0
  8 20  1  0
  9 21  1  0
  9 22  1  0
 10 23  1  0
 10 24  1  0
 11 25  1  0
 11 26  1  0
 12 27  1  0
M  END
$$$$

     RDKit          3D

 27 28  0  0  0  0  0  0  0  0999 V2000
   -2.8893    1.8898   -0.4570 O   0  0  0  0  0  0  0  0  0  0  0  0
   -2.3850    0.8062   -0.0813 C   0  0  0  0  0  0  0  0  0  0  0  0
   -2.0218    0.6701    1.3433 C   0  0  0  0  0  0  0  0  0  0  0  0
   -0.5091    0.5468    1.4817 C   0  0  0  0  0  0  0  0  0  0  0  0
    0.0064    0.0457    0.2640 N   0  0  0  0  0  0  0  0  0  0  0  0
    1.2815    0.5509   -0.0446 C   0  0  0  0  0  0  0  0  0  0  0  0
    1.9579    0.1199   -1.2907 C   0  0  0  0  0  0  0  0  0  0  0  0
    3.2367    0.2693   -0.5786 N   0  0  0  0  0  0  0  0  0  0  0  0
    2.4745   -0.0342    0.6438 C   0  0  0  0  0  0  0  0  0  0  0  0
   -0.2920   -1.2849   -0.0634 C   0  0  0  0  0  0  0  0  0  0  0  0
   -1.3352   -1.3017   -1.1497 C   0  0  0  0  0  0  0  0  0  0  0  0
   -2.2228   -0.1728   -1.0898 N   0  0  0  0  0  0  0  0  0  0  0  0
   -2.3829    1.5898    1.8918 H   0  0  0  0  0  0  0  0  0  0  0  0
   -2.5420   -0.1763    1.8466 H   0  0  0  0  0  0  0  0  0  0  0  0
   -0.3016   -0.0728    2.3772 H   0  0  0  0  0  0  0  0  0  0  0  0
   -0.1137    1.5660    1.6613 H   0  0  0  0  0  0  0  0  0  0  0  0
    1.3059    1.6676    0.0458 H   0  0  0  0  0  0  0  0  0  0  0  0
    1.9189    0.8414   -2.1501 H   0  0  0  0  0  0  0  0  0  0  0  0
    1.8584   -0.9100   -1.6202 H   0  0  0  0  0  0  0  0  0  0  0  0
    3.4865    1.3026   -0.5908 H   0  0  0  0  0  0  0  0  0  0  0  0
    2.4112   -1.1043    0.8507 H   0  0  0  0  0  0  0  0  0  0  0  0
    2.7875    0.5729    1.5173 H   0  0  0  0  0  0  0  0  0  0  0  0
    0.5545   -1.9055   -0.4079 H   0  0  0  0  0  0  0  0  0  0  0  0
   -0.7394   -1.8591    0.8015 H   0  0  0  0  0  0  0  0  0  0  0  0
   -1.9394   -2.2309   -1.1264 H   0  0  0  0  0  0  0  0  0  0  0  0
   -0.7755   -1.2905   -2.1273 H   0  0  0  0  0  0  0  0  0  0  0  0
   -2.8304   -0.0959   -1.9472 H   0  0  0  0  0  0  0  0  0  0  0  0
  1  2  2  0
  2  3  1  0
  3  4  1  0
  4  5  1  0
  5  6  1  0
  6  7  1  0
  7  8  1  0
  8  9  1  0
  5 10  1  0
 10 11  1  0
 11 12  1  0
 12  2  1  0
  9  6  1  0
  3 13  1  0
  3 14  1  0
  4 15  1  0
  4 16  1  0
  6 17  1  0
  7 18  1  0
  7 19  1  0
  8 20  1  0
  9 21  1  0
  9 22  1  0
 10 23  1  0
 10 24  1  0
 11 25  1  0
 11 26  1  0
 12 27  1  0
M  END
$$$$

     RDKit          3D

 27 28  0  0  0  0  0  0  0  0999 V2000
    3.7965   -0.7535   -1.1744 O   0  0  0  0  0  0  0  0  0  0  0  0
    2.7283   -0.4437   -0.6043 C   0  0  0  0  0  0  0  0  0  0  0  0
    1.5534   -1.2799   -1.0294 C   0  0  0  0  0  0  0  0  0  0  0  0
    0.5061   -1.3282    0.0587 C   0  0  0  0  0  0  0  0  0  0  0  0
   -0.2383   -0.1537    0.2607 N   0  0  0  0  0  0  0  0  0  0  0  0
   -1.4297    0.0156   -0.4906 C   0  0  0  0  0  0  0  0  0  0  0  0
   -2.5600   -0.9185   -0.3425 C   0  0  0  0  0  0  0  0  0  0  0  0
   -3.4826    0.2233   -0.2010 N   0  0  0  0  0  0  0  0  0  0  0  0
   -2.3480    0.9949    0.2548 C   0  0  0  0  0  0  0  0  0  0  0  0
    0.4633    1.0731    0.3700 C   0  0  0  0  0  0  0  0  0  0  0  0
    1.7110    1.0445    1.2001 C   0  0  0  0  0  0  0  0  0  0  0  0
    2.7826    0.6208    0.3336 N   0  0  0  0  0  0  0  0  0  0  0  0
    1.9452   -2.3130   -1.1367 H   0  0  0  0  0  0  0  0  0  0  0  0
    1.1449   -0.9674   -1.9941 H   0  0  0  0  0  0  0  0  0  0  0  0
    1.0465   -1.5889    1.0120 H   0  0  0  0  0  0  0  0  0  0  0  0
   -0.1618   -2.1705   -0.1571 H   0  0  0  0  0  0  0  0  0  0  0  0
   -1.3082    0.3744   -1.5252 H   0  0  0  0  0  0  0  0  0  0  0  0
   -2.6365   -1.5441    0.5496 H   0  0  0  0  0  0  0  0  0  0  0  0
   -2.8217   -1.4157   -1.3225 H   0  0  0  0  0  0  0  0  0  0  0  0
   -3.8484    0.5874   -1.0983 H   0  0  0  0  0  0  0  0  0  0  0  0
   -2.1835    0.9849    1.3515 H   0  0  0  0  0  0  0  0  0  0  0  0
   -2.3486    2.0133   -0.1337 H   0  0  0  0  0  0  0  0  0  0  0  0
   -0.2355    1.8321    0.8227 H   0  0  0  0  0  0  0  0  0  0  0  0
    0.7537    1.5099   -0.6284 H   0  0  0  0  0  0  0  0  0  0  0  0
    1.8906    2.0758    1.5635 H   0  0  0  0  0  0  0  0  0  0  0  0
    1.6054    0.3950    2.0948 H   0  0  0  0  0  0  0  0  0  0  0  0
    3.6755    1.1323    0.3915 H   0  0  0  0  0  0  0  0  0  0  0  0
  1  2  2  0
  2  3  1  0
  3  4  1  0
  4  5  1  0
  5  6  1  0
  6  7  1  0
  7  8  1  0
  8  9  1  0
  5 10  1  0
 10 11  1  0
 11 12  1  0
 12  2  1  0
  9  6  1  0
  3 13  1  0
  3 14  1  0
  4 15  1  0
  4 16  1  0
  6 17  1  0
  7 18  1  0
  7 19  1  0
  8 20  1  0
  9 21  1  0
  9 22  1  0
 10 23  1  0
 10 24  1  0
 11 25  1  0
 11 26  1  0
 12 27  1  0
M  END
$$$$

     RDKit          3D

 27 28  0  0  0  0  0  0  0  0999 V2000
    3.3251    2.1288    0.8459 O   0  0  0  0  0  0  0  0  0  0  0  0
    2.4602    1.2744    0.5296 C   0  0  0  0  0  0  0  0  0  0  0  0
    1.2187    1.9048   -0.0295 C   0  0  0  0  0  0  0  0  0  0  0  0
    0.4208    0.9116   -0.8554 C   0  0  0  0  0  0  0  0  0  0  0  0
   -0.2227   -0.1045   -0.1360 N   0  0  0  0  0  0  0  0  0  0  0  0
   -1.4488   -0.5876   -0.6511 C   0  0  0  0  0  0  0  0  0  0  0  0
   -2.5827    0.4130   -0.7145 C   0  0  0  0  0  0  0  0  0  0  0  0
   -2.9863   -0.0881    0.6080 N   0  0  0  0  0  0  0  0  0  0  0  0
   -2.3706   -1.3489    0.2132 C   0  0  0  0  0  0  0  0  0  0  0  0
    0.5245   -0.9801    0.6682 C   0  0  0  0  0  0  0  0  0  0  0  0
    1.9649   -1.1968    0.2246 C   0  0  0  0  0  0  0  0  0  0  0  0
    2.7520   -0.0961    0.7295 N   0  0  0  0  0  0  0  0  0  0  0  0
    0.5979    2.3250    0.7558 H   0  0  0  0  0  0  0  0  0  0  0  0
    1.5697    2.7001   -0.7352 H   0  0  0  0  0  0  0  0  0  0  0  0
    1.0438    0.5558   -1.7200 H   0  0  0  0  0  0  0  0  0  0  0  0
   -0.3804    1.5359   -1.3528 H   0  0  0  0  0  0  0  0  0  0  0  0
   -1.3060   -1.0528   -1.6663 H   0  0  0  0  0  0  0  0  0  0  0  0
   -2.3208    1.4667   -0.7279 H   0  0  0  0  0  0  0  0  0  0  0  0
   -3.3520    0.0720   -1.4517 H   0  0  0  0  0  0  0  0  0  0  0  0
   -2.4920    0.3566    1.4068 H   0  0  0  0  0  0  0  0  0  0  0  0
   -1.9838   -1.9676    1.0152 H   0  0  0  0  0  0  0  0  0  0  0  0
   -3.0922   -1.9399   -0.4265 H   0  0  0  0  0  0  0  0  0  0  0  0
    0.1035   -1.9835    0.7987 H   0  0  0  0  0  0  0  0  0  0  0  0
    0.6011   -0.5222    1.6997 H   0  0  0  0  0  0  0  0  0  0  0  0
    2.0281   -1.2697   -0.8931 H   0  0  0  0  0  0  0  0  0  0  0  0
    2.3353   -2.1750    0.5878 H   0  0  0  0  0  0  0  0  0  0  0  0
    3.5927   -0.3320    1.2769 H   0  0  0  0  0  0  0  0  0  0  0  0
  1  2  2  0
  2  3  1  0
  3  4  1  0
  4  5  1  0
  5  6  1  0
  6  7  1  0
  7  8  1  0
  8  9  1  0
  5 10  1  0
 10 11  1  0
 11 12  1  0
 12  2  1  0
  9  6  1  0
  3 13  1  0
  3 14  1  0
  4 15  1  0
  4 16  1  0
  6 17  1  0
  7 18  1  0
  7 19  1  0
  8 20  1  0
  9 21  1  0
  9 22  1  0
 10 23  1  0
 10 24  1  0
 11 25  1  0
 11 26  1  0
 12 27  1  0
M  END
$$$$

     RDKit          3D

 27 28  0  0  0  0  0  0  0  0999 V2000
    2.6655    2.1461   -0.2983 O   0  0  0  0  0  0  0  0  0  0  0  0
    2.3003    1.0254    0.0783 C   0  0  0  0  0  0  0  0  0  0  0  0
    1.6749    1.0078    1.4362 C   0  0  0  0  0  0  0  0  0  0  0  0
    0.6140   -0.0978    1.3819 C   0  0  0  0  0  0  0  0  0  0  0  0
   -0.0412   -0.0406    0.1101 N   0  0  0  0  0  0  0  0  0  0  0  0
   -1.4349    0.1804    0.3297 C   0  0  0  0  0  0  0  0  0  0  0  0
   -2.0282    1.3002   -0.5172 C   0  0  0  0  0  0  0  0  0  0  0  0
   -3.2809    0.5292   -0.4870 N   0  0  0  0  0  0  0  0  0  0  0  0
   -2.4394   -0.6593   -0.3504 C   0  0  0  0  0  0  0  0  0  0  0  0
    0.2694   -1.1157   -0.7793 C   0  0  0  0  0  0  0  0  0  0  0  0
    1.7515   -1.2763   -0.9615 C   0  0  0  0  0  0  0  0  0  0  0  0
    2.5250   -0.0833   -0.8207 N   0  0  0  0  0  0  0  0  0  0  0  0
    2.3976    0.6989    2.2085 H   0  0  0  0  0  0  0  0  0  0  0  0
    1.1937    1.9863    1.6164 H   0  0  0  0  0  0  0  0  0  0  0  0
   -0.0105    0.0556    2.2536 H   0  0  0  0  0  0  0  0  0  0  0  0
    1.1371   -1.0836    1.4640 H   0  0  0  0  0  0  0  0  0  0  0  0
   -1.6998    0.2996    1.4228 H   0  0  0  0  0  0  0  0  0  0  0  0
   -1.6059    1.2510   -1.5320 H   0  0  0  0  0  0  0  0  0  0  0  0
   -2.0297    2.2635   -0.0216 H   0  0  0  0  0  0  0  0  0  0  0  0
   -3.7702    0.7877    0.4269 H   0  0  0  0  0  0  0  0  0  0  0  0
   -2.9950   -1.3730    0.3298 H   0  0  0  0  0  0  0  0  0  0  0  0
   -2.2171   -1.0784   -1.3336 H   0  0  0  0  0  0  0  0  0  0  0  0
   -0.1766   -2.0619   -0.3926 H   0  0  0  0  0  0  0  0  0  0  0  0
   -0.1737   -0.8874   -1.7673 H   0  0  0  0  0  0  0  0  0  0  0  0
    2.1174   -2.1249   -0.3316 H   0  0  0  0  0  0  0  0  0  0  0  0
    1.9120   -1.6570   -2.0196 H   0  0  0  0  0  0  0  0  0  0  0  0
    3.3445    0.0072   -1.4452 H   0  0  0  0  0  0  0  0  0  0  0  0
  1  2  2  0
  2  3  1  0
  3  4  1  0
  4  5  1  0
  5  6  1  0
  6  7  1  0
  7  8  1  0
  8  9  1  0
  5 10  1  0
 10 11  1  0
 11 12  1  0
 12  2  1  0
  9  6  1  0
  3 13  1  0
  3 14  1  0
  4 15  1  0
  4 16  1  0
  6 17  1  0
  7 18  1  0
  7 19  1  0
  8 20  1  0
  9 21  1  0
  9 22  1  0
 10 23  1  0
 10 24  1  0
 11 25  1  0
 11 26  1  0
 12 27  1  0
M  END
$$$$
