
     RDKit          3D

 18 17  0  0  0  0  0  0  0  0999 V2000
   -1.4357    1.4543    1.5633 O   0  0  0  0  0  0  0  0  0  0  0  0
   -1.4956    0.9501    0.4155 C   0  0  0  0  0  0  0  0  0  0  0  0
   -2.6533    1.1521   -0.3192 O   0  0  0  0  0  0  0  0  0  0  0  0
   -0.3487    0.1720   -0.1035 C   0  0  2  0  0  0  0  0  0  0  0  0
   -0.8019   -1.2148   -0.5720 C   0  0  0  0  0  0  0  0  0  0  0  0
   -1.2271   -1.9933    0.4764 O   0  0  0  0  0  0  0  0  0  0  0  0
    0.7347    0.0946    0.8247 N   0  0  0  0  0  0  0  0  0  0  0  0
    2.1440    0.8299    0.1437 S   0  0  0  0  0  6  0  0  0  0  0  0
    1.6532    1.8563   -0.8629 O   0  0  0  0  0  0  0  0  0  0  0  0
    2.9215    1.5000    1.2345 O   0  0  0  0  0  0  0  0  0  0  0  0
    3.0616   -0.2855   -0.7034 O   0  0  0  0  0  0  0  0  0  0  0  0
   -3.5626    1.3333    0.0953 H   0  0  0  0  0  0  0  0  0  0  0  0
   -0.0238    0.6898   -1.0469 H   0  0  0  0  0  0  0  0  0  0  0  0
   -1.6259   -1.0155   -1.3057 H   0  0  0  0  0  0  0  0  0  0  0  0
    0.0671   -1.6368   -1.1165 H   0  0  0  0  0  0  0  0  0  0  0  0
   -2.1357   -2.3344    0.2513 H   0  0  0  0  0  0  0  0  0  0  0  0
    0.9578   -0.8506    1.1689 H   0  0  0  0  0  0  0  0  0  0  0  0
    3.7704   -0.7014   -0.1437 H   0  0  0  0  0  0  0  0  0  0  0  0
  1  2  2  0
  2  3  1  0
  2  4  1  0
  4  5  1  0
  5  6  1  0
  4  7  1  0
  7  8  1  0
  8  9  2  0
  8 10  2  0
  8 11  1  0
  3 12  1  0
  4 13  1  6
  5 14  1  0
  5 15  1  0
  6 16  1  0
  7 17  1  0
 11 18  1  0
M  END
$$$$

     RDKit          3D

 18 17  0  0  0  0  0  0  0  0999 V2000
   -0.8938    2.0113    1.0855 O   0  0  0  0  0  0  0  0  0  0  0  0
   -1.1004    1.3516    0.0252 C   0  0  0  0  0  0  0  0  0  0  0  0
   -1.9963    1.8449   -0.8967 O   0  0  0  0  0  0  0  0  0  0  0  0
   -0.4037    0.0741   -0.2371 C   0  0  2  0  0  0  0  0  0  0  0  0
   -1.4621   -1.0231   -0.3022 C   0  0  0  0  0  0  0  0  0  0  0  0
   -0.7999   -2.2300   -0.4909 O   0  0  0  0  0  0  0  0  0  0  0  0
    0.4663   -0.2172    0.8640 N   0  0  0  0  0  0  0  0  0  0  0  0
    2.0921   -0.5081    0.3981 S   0  0  0  0  0  6  0  0  0  0  0  0
    2.7055   -1.4039    1.4594 O   0  0  0  0  0  0  0  0  0  0  0  0
    2.1621   -1.1557   -0.9325 O   0  0  0  0  0  0  0  0  0  0  0  0
    3.0076    0.9015    0.3787 O   0  0  0  0  0  0  0  0  0  0  0  0
   -2.2712    2.8223   -0.8870 H   0  0  0  0  0  0  0  0  0  0  0  0
    0.1409    0.0575   -1.1967 H   0  0  0  0  0  0  0  0  0  0  0  0
   -2.0801   -0.8452   -1.2047 H   0  0  0  0  0  0  0  0  0  0  0  0
   -2.1145   -1.0045    0.5752 H   0  0  0  0  0  0  0  0  0  0  0  0
   -0.5494   -2.5839    0.3794 H   0  0  0  0  0  0  0  0  0  0  0  0
    0.3755    0.4036    1.6695 H   0  0  0  0  0  0  0  0  0  0  0  0
    2.7213    1.5050    1.1109 H   0  0  0  0  0  0  0  0  0  0  0  0
  1  2  2  0
  2  3  1  0
  2  4  1  0
  4  5  1  0
  5  6  1  0
  4  7  1  0
  7  8  1  0
  8  9  2  0
  8 10  2  0
  8 11  1  0
  3 12  1  0
  4 13  1  6
  5 14  1  0
  5 15  1  0
  6 16  1  0
  7 17  1  0
 11 18  1  0
M  END
$$$$

     RDKit          3D

 18 17  0  0  0  0  0  0  0  0999 V2000
   -1.9367   -1.2089   -1.3183 O   0  0  0  0  0  0  0  0  0  0  0  0
   -1.5797   -0.9752   -0.1209 C   0  0  0  0  0  0  0  0  0  0  0  0
   -2.4201   -1.4278    0.8804 O   0  0  0  0  0  0  0  0  0  0  0  0
   -0.3300   -0.2568    0.1697 C   0  0  2  0  0  0  0  0  0  0  0  0
   -0.6376    1.0247    0.9318 C   0  0  0  0  0  0  0  0  0  0  0  0
   -1.4522    1.7997    0.1270 O   0  0  0  0  0  0  0  0  0  0  0  0
    0.3418    0.0939   -1.0620 N   0  0  0  0  0  0  0  0  0  0  0  0
    1.9305   -0.5559   -1.0511 S   0  0  0  0  0  6  0  0  0  0  0  0
    1.9080   -1.8646   -0.3032 O   0  0  0  0  0  0  0  0  0  0  0  0
    2.3399   -0.8077   -2.4625 O   0  0  0  0  0  0  0  0  0  0  0  0
    3.0399    0.5189   -0.3836 O   0  0  0  0  0  0  0  0  0  0  0  0
   -2.8960   -2.3311    0.7942 H   0  0  0  0  0  0  0  0  0  0  0  0
    0.3332   -0.8494    0.8094 H   0  0  0  0  0  0  0  0  0  0  0  0
   -1.1644    0.7782    1.8676 H   0  0  0  0  0  0  0  0  0  0  0  0
    0.3208    1.5641    1.1397 H   0  0  0  0  0  0  0  0  0  0  0  0
   -1.0360    2.6838   -0.0134 H   0  0  0  0  0  0  0  0  0  0  0  0
    0.4014    1.1268   -1.1755 H   0  0  0  0  0  0  0  0  0  0  0  0
    2.8373    0.6872    0.5720 H   0  0  0  0  0  0  0  0  0  0  0  0
  1  2  2  0
  2  3  1  0
  2  4  1  0
  4  5  1  0
  5  6  1  0
  4  7  1  0
  7  8  1  0
  8  9  2  0
  8 10  2  0
  8 11  1  0
  3 12  1  0
  4 13  1  1
  5 14  1  0
  5 15  1  0
  6 16  1  0
  7 17  1  0
 11 18  1  0
M  END
$$$$

     RDKit          3D

 18 17  0  0  0  0  0  0  0  0999 V2000
   -1.3980   -1.4810   -1.5623 O   0  0  0  0  0  0  0  0  0  0  0  0
   -1.4222   -0.9895   -0.4108 C   0  0  0  0  0  0  0  0  0  0  0  0
   -2.4753   -1.3166    0.4189 O   0  0  0  0  0  0  0  0  0  0  0  0
   -0.3440   -0.0885    0.0241 C   0  0  2  0  0  0  0  0  0  0  0  0
   -0.8894    1.3003    0.3702 C   0  0  0  0  0  0  0  0  0  0  0  0
   -1.8342    1.2434    1.3818 O   0  0  0  0  0  0  0  0  0  0  0  0
    0.6285    0.0841   -1.0360 N   0  0  0  0  0  0  0  0  0  0  0  0
    2.1954   -0.4458   -0.5395 S   0  0  0  0  0  6  0  0  0  0  0  0
    2.9723   -0.8609   -1.7603 O   0  0  0  0  0  0  0  0  0  0  0  0
    2.1430   -1.6051    0.3857 O   0  0  0  0  0  0  0  0  0  0  0  0
    3.0339    0.8346    0.1571 O   0  0  0  0  0  0  0  0  0  0  0  0
   -3.0049   -2.1851    0.2973 H   0  0  0  0  0  0  0  0  0  0  0  0
    0.1533   -0.5294    0.9257 H   0  0  0  0  0  0  0  0  0  0  0  0
   -0.0585    1.9778    0.6105 H   0  0  0  0  0  0  0  0  0  0  0  0
   -1.3393    1.6789   -0.5840 H   0  0  0  0  0  0  0  0  0  0  0  0
   -1.5423    1.8012    2.1383 H   0  0  0  0  0  0  0  0  0  0  0  0
    0.3482   -0.3719   -1.9218 H   0  0  0  0  0  0  0  0  0  0  0  0
    2.8334    0.9534    1.1052 H   0  0  0  0  0  0  0  0  0  0  0  0
  1  2  2  0
  2  3  1  0
  2  4  1  0
  4  5  1  0
  5  6  1  0
  4  7  1  0
  7  8  1  0
  8  9  2  0
  8 10  2  0
  8 11  1  0
  3 12  1  0
  4 13  1  1
  5 14  1  0
  5 15  1  0
  6 16  1  0
  7 17  1  0
 11 18  1  0
M  END
$$$$

     RDKit          3D

 18 17  0  0  0  0  0  0  0  0999 V2000
   -1.1385   -2.2974   -0.5394 O   0  0  0  0  0  0  0  0  0  0  0  0
   -1.3643   -1.1208   -0.3732 C   0  0  0  0  0  0  0  0  0  0  0  0
   -2.6570   -0.6600   -0.6826 O   0  0  0  0  0  0  0  0  0  0  0  0
   -0.3600   -0.1527    0.0872 C   0  0  2  0  0  0  0  0  0  0  0  0
   -0.8825    0.9694    0.8605 C   0  0  0  0  0  0  0  0  0  0  0  0
   -1.7884    1.7114    0.1455 O   0  0  0  0  0  0  0  0  0  0  0  0
    0.5660    0.0555   -1.0297 N   0  0  0  0  0  0  0  0  0  0  0  0
    2.1898    0.0651   -0.4785 S   0  0  0  0  0  6  0  0  0  0  0  0
    3.1008   -0.4533   -1.5381 O   0  0  0  0  0  0  0  0  0  0  0  0
    2.5945    1.4853   -0.0872 O   0  0  0  0  0  0  0  0  0  0  0  0
    2.2658   -0.9162    0.8671 O   0  0  0  0  0  0  0  0  0  0  0  0
   -3.2096   -1.2659   -1.3543 H   0  0  0  0  0  0  0  0  0  0  0  0
    0.3079   -0.7124    0.8930 H   0  0  0  0  0  0  0  0  0  0  0  0
    0.0756    1.7125    0.9337 H   0  0  0  0  0  0  0  0  0  0  0  0
   -1.1025    0.7324    1.8300 H   0  0  0  0  0  0  0  0  0  0  0  0
   -2.1927    2.3350    0.8452 H   0  0  0  0  0  0  0  0  0  0  0  0
    0.4849   -0.6744   -1.7433 H   0  0  0  0  0  0  0  0  0  0  0  0
    3.1100   -0.8134    1.3639 H   0  0  0  0  0  0  0  0  0  0  0  0
  1  2  2  0
  2  3  1  0
  2  4  1  0
  4  5  1  0
  5  6  1  0
  4  7  1  0
  7  8  1  0
  8  9  2  0
  8 10  2  0
  8 11  1  0
  3 12  1  0
  4 13  1  1
  5 14  1  0
  5 15  1  0
  6 16  1  0
  7 17  1  0
 11 18  1  0
M  END
$$$$

     RDKit          3D

 18 17  0  0  0  0  0  0  0  0999 V2000
   -0.1997    0.2931    2.2945 O   0  0  0  0  0  0  0  0  0  0  0  0
   -0.7968    0.6994    1.2712 C   0  0  0  0  0  0  0  0  0  0  0  0
   -1.7897    1.6417    1.4333 O   0  0  0  0  0  0  0  0  0  0  0  0
   -0.4061    0.1489   -0.0488 C   0  0  2  0  0  0  0  0  0  0  0  0
   -1.6137   -0.4727   -0.7513 C   0  0  0  0  0  0  0  0  0  0  0  0
   -2.0561   -1.5583   -0.0071 O   0  0  0  0  0  0  0  0  0  0  0  0
    0.6497   -0.8118    0.0654 N   0  0  0  0  0  0  0  0  0  0  0  0
    2.0687   -0.3203   -0.7604 S   0  0  0  0  0  6  0  0  0  0  0  0
    1.7220    0.4809   -1.9929 O   0  0  0  0  0  0  0  0  0  0  0  0
    2.8171   -1.5597   -1.1832 O   0  0  0  0  0  0  0  0  0  0  0  0
    3.0872    0.5684    0.2388 O   0  0  0  0  0  0  0  0  0  0  0  0
   -1.7049    2.3296    2.1710 H   0  0  0  0  0  0  0  0  0  0  0  0
   -0.0311    1.0006   -0.6635 H   0  0  0  0  0  0  0  0  0  0  0  0
   -2.4283    0.2882   -0.7639 H   0  0  0  0  0  0  0  0  0  0  0  0
   -1.3608   -0.7567   -1.7866 H   0  0  0  0  0  0  0  0  0  0  0  0
   -1.6830   -1.5581    0.9192 H   0  0  0  0  0  0  0  0  0  0  0  0
    0.3366   -1.7745   -0.1835 H   0  0  0  0  0  0  0  0  0  0  0  0
    3.3891    1.3614   -0.2522 H   0  0  0  0  0  0  0  0  0  0  0  0
  1  2  2  0
  2  3  1  0
  2  4  1  0
  4  5  1  0
  5  6  1  0
  4  7  1  0
  7  8  1  0
  8  9  2  0
  8 10  2  0
  8 11  1  0
  3 12  1  0
  4 13  1  6
  5 14  1  0
  5 15  1  0
  6 16  1  0
  7 17  1  0
 11 18  1  0
M  END
$$$$

     RDKit          3D

 18 17  0  0  0  0  0  0  0  0999 V2000
    0.5413    1.4945    1.9104 O   0  0  0  0  0  0  0  0  0  0  0  0
    0.8636    1.2048    0.7702 C   0  0  0  0  0  0  0  0  0  0  0  0
    1.6711    2.0001   -0.0130 O   0  0  0  0  0  0  0  0  0  0  0  0
    0.3662   -0.1467    0.1323 C   0  0  2  0  0  0  0  0  0  0  0  0
    1.5085   -0.7544   -0.5553 C   0  0  0  0  0  0  0  0  0  0  0  0
    2.4737   -1.3402    0.3187 O   0  0  0  0  0  0  0  0  0  0  0  0
   -0.6885    0.2496   -0.6909 N   0  0  0  0  0  0  0  0  0  0  0  0
   -2.2418   -0.1489   -0.2642 S   0  0  0  0  0  6  0  0  0  0  0  0
   -2.9445   -0.7937   -1.4213 O   0  0  0  0  0  0  0  0  0  0  0  0
   -3.0288    1.1139    0.0907 O   0  0  0  0  0  0  0  0  0  0  0  0
   -2.2366   -1.2438    1.0017 O   0  0  0  0  0  0  0  0  0  0  0  0
    1.3594    3.0279   -0.0322 H   0  0  0  0  0  0  0  0  0  0  0  0
   -0.0211   -0.7337    1.0099 H   0  0  0  0  0  0  0  0  0  0  0  0
    1.2611   -1.4617   -1.3439 H   0  0  0  0  0  0  0  0  0  0  0  0
    2.1271    0.0738   -1.0784 H   0  0  0  0  0  0  0  0  0  0  0  0
    2.4503   -2.3349    0.1077 H   0  0  0  0  0  0  0  0  0  0  0  0
   -0.4536    0.7333   -1.5397 H   0  0  0  0  0  0  0  0  0  0  0  0
   -3.0076   -0.9398    1.5974 H   0  0  0  0  0  0  0  0  0  0  0  0
  1  2  2  0
  2  3  1  0
  2  4  1  0
  4  5  1  0
  5  6  1  0
  4  7  1  0
  7  8  1  0
  8  9  2  0
  8 10  2  0
  8 11  1  0
  3 12  1  0
  4 13  1  1
  5 14  1  0
  5 15  1  0
  6 16  1  0
  7 17  1  0
 11 18  1  0
M  END
$$$$

     RDKit          3D

 18 17  0  0  0  0  0  0  0  0999 V2000
   -1.2695    0.7607   -2.4556 O   0  0  0  0  0  0  0  0  0  0  0  0
   -1.4088    0.2297   -1.3369 C   0  0  0  0  0  0  0  0  0  0  0  0
   -2.6748   -0.2506   -1.0138 O   0  0  0  0  0  0  0  0  0  0  0  0
   -0.3434    0.0711   -0.3339 C   0  0  2  0  0  0  0  0  0  0  0  0
   -0.8434    0.6231    0.9839 C   0  0  0  0  0  0  0  0  0  0  0  0
   -2.0878    0.0848    1.3088 O   0  0  0  0  0  0  0  0  0  0  0  0
    0.9211    0.5801   -0.7229 N   0  0  0  0  0  0  0  0  0  0  0  0
    2.1750   -0.5534   -0.8263 S   0  0  0  0  0  6  0  0  0  0  0  0
    1.7051   -1.9109   -1.2910 O   0  0  0  0  0  0  0  0  0  0  0  0
    3.1591   -0.0732   -1.8685 O   0  0  0  0  0  0  0  0  0  0  0  0
    3.0217   -0.7471    0.6057 O   0  0  0  0  0  0  0  0  0  0  0  0
   -3.4663   -0.1751   -1.6237 H   0  0  0  0  0  0  0  0  0  0  0  0
   -0.2176   -1.0389   -0.1727 H   0  0  0  0  0  0  0  0  0  0  0  0
   -0.9765    1.7254    0.9401 H   0  0  0  0  0  0  0  0  0  0  0  0
   -0.1296    0.3422    1.7882 H   0  0  0  0  0  0  0  0  0  0  0  0
   -1.9194   -0.8233    1.6683 H   0  0  0  0  0  0  0  0  0  0  0  0
    0.8267    1.0805   -1.6259 H   0  0  0  0  0  0  0  0  0  0  0  0
    3.5287    0.0749    0.8372 H   0  0  0  0  0  0  0  0  0  0  0  0
  1  2  2  0
  2  3  1  0
  2  4  1  0
  4  5  1  0
  5  6  1  0
  4  7  1  0
  7  8  1  0
  8  9  2  0
  8 10  2  0
  8 11  1  0
  3 12  1  0
  4 13  1  1
  5 14  1  0
  5 15  1  0
  6 16  1  0
  7 17  1  0
 11 18  1  0
M  END
$$$$
