
     RDKit          3D

 22 22  0  0  0  0  0  0  0  0999 V2000
    3.5465   -0.7194   -0.3172 C   0  0  0  0  0  0  0  0  0  0  0  0
    2.2966   -0.0356   -0.2364 O   0  0  0  0  0  0  0  0  0  0  0  0
    1.1113   -0.6909    0.0653 C   0  0  0  0  0  0  0  0  0  0  0  0
    1.1450   -1.9080    0.2700 O   0  0  0  0  0  0  0  0  0  0  0  0
   -0.1420    0.0722    0.1331 C   0  0  0  0  0  0  0  0  0  0  0  0
   -0.2817    1.3711   -0.0689 C   0  0  0  0  0  0  0  0  0  0  0  0
    0.8116    2.2254   -0.3903 N   0  0  0  0  0  0  0  0  0  0  0  0
   -1.6572    1.7388    0.0865 N   0  0  0  0  0  0  0  0  0  0  0  0
   -2.2325    0.6645    0.8888 C   0  0  0  0  0  3  0  0  0  0  0  0
   -3.5732    0.4843    0.6673 O   0  0  0  0  0  0  0  0  0  0  0  0
   -1.4245   -0.4693    0.4306 N   0  0  0  0  0  0  0  0  0  0  0  0
   -1.8047   -1.8496    0.2949 C   0  0  0  0  0  0  0  0  0  0  0  0
    3.6316   -1.0933   -1.3568 H   0  0  0  0  0  0  0  0  0  0  0  0
    3.6215   -1.5216    0.4377 H   0  0  0  0  0  0  0  0  0  0  0  0
    4.3725   -0.0028   -0.0821 H   0  0  0  0  0  0  0  0  0  0  0  0
    1.4558    2.6229    0.3023 H   0  0  0  0  0  0  0  0  0  0  0  0
    0.9552    2.4534   -1.3967 H   0  0  0  0  0  0  0  0  0  0  0  0
   -2.1014    2.5853   -0.3002 H   0  0  0  0  0  0  0  0  0  0  0  0
   -3.8734    0.7697   -0.2510 H   0  0  0  0  0  0  0  0  0  0  0  0
   -2.0421   -2.1271   -0.7727 H   0  0  0  0  0  0  0  0  0  0  0  0
   -2.7558   -2.0351    0.8529 H   0  0  0  0  0  0  0  0  0  0  0  0
   -1.0592   -2.5348    0.7431 H   0  0  0  0  0  0  0  0  0  0  0  0
  1  2  1  0
  2  3  1  0
  3  4  2  0
  3  5  1  0
  5  6  2  0
  6  7  1  0
  6  8  1  0
  8  9  1  0
  9 10  1  0
  9 11  1  0
 11 12  1  0
 11  5  1  0
  1 13  1  0
  1 14  1  0
  1 15  1  0
  7 16  1  0
  7 17  1  0
  8 18  1  0
 10 19  1  0
 12 20  1  0
 12 21  1  0
 12 22  1  0
M  CHG  1   9  -1
M  END
$$$$

     RDKit          3D

 22 22  0  0  0  0  0  0  0  0999 V2000
    3.5108    0.2454   -0.4242 C   0  0  0  0  0  0  0  0  0  0  0  0
    2.1778    0.6022   -0.0306 O   0  0  0  0  0  0  0  0  0  0  0  0
    1.0928   -0.1846   -0.4247 C   0  0  0  0  0  0  0  0  0  0  0  0
    1.3734   -1.1903   -1.1248 O   0  0  0  0  0  0  0  0  0  0  0  0
   -0.2759    0.1294   -0.0552 C   0  0  0  0  0  0  0  0  0  0  0  0
   -0.6547    1.1789    0.6855 C   0  0  0  0  0  0  0  0  0  0  0  0
    0.2692    2.1231    1.2030 N   0  0  0  0  0  0  0  0  0  0  0  0
   -2.0614    1.1652    0.8419 N   0  0  0  0  0  0  0  0  0  0  0  0
   -2.5840    0.0208    0.1411 C   0  0  0  0  0  3  0  0  0  0  0  0
   -3.2849   -0.8495    0.9713 O   0  0  0  0  0  0  0  0  0  0  0  0
   -1.4040   -0.6404   -0.4330 N   0  0  0  0  0  0  0  0  0  0  0  0
   -1.3985   -1.8431   -1.2287 C   0  0  0  0  0  0  0  0  0  0  0  0
    3.9482   -0.4999    0.2865 H   0  0  0  0  0  0  0  0  0  0  0  0
    4.1765    1.1160   -0.4683 H   0  0  0  0  0  0  0  0  0  0  0  0
    3.4764   -0.2688   -1.4264 H   0  0  0  0  0  0  0  0  0  0  0  0
    0.7527    1.9167    2.0981 H   0  0  0  0  0  0  0  0  0  0  0  0
    0.4808    3.0164    0.7178 H   0  0  0  0  0  0  0  0  0  0  0  0
   -2.6212    1.8508    1.3645 H   0  0  0  0  0  0  0  0  0  0  0  0
   -2.7168   -1.2743    1.6603 H   0  0  0  0  0  0  0  0  0  0  0  0
   -2.3239   -2.4564   -1.0593 H   0  0  0  0  0  0  0  0  0  0  0  0
   -1.3780   -1.6357   -2.3208 H   0  0  0  0  0  0  0  0  0  0  0  0
   -0.5554   -2.5217   -0.9743 H   0  0  0  0  0  0  0  0  0  0  0  0
  1  2  1  0
  2  3  1  0
  3  4  2  0
  3  5  1  0
  5  6  2  0
  6  7  1  0
  6  8  1  0
  8  9  1  0
  9 10  1  0
  9 11  1  0
 11 12  1  0
 11  5  1  0
  1 13  1  0
  1 14  1  0
  1 15  1  0
  7 16  1  0
  7 17  1  0
  8 18  1  0
 10 19  1  0
 12 20  1  0
 12 21  1  0
 12 22  1  0
M  CHG  1   9  -1
M  END
$$$$

     RDKit          3D

 22 22  0  0  0  0  0  0  0  0999 V2000
    3.4133   -0.4929   -0.1558 C   0  0  0  0  0  0  0  0  0  0  0  0
    2.1655    0.1589   -0.0948 O   0  0  0  0  0  0  0  0  0  0  0  0
    0.9875   -0.5921   -0.1796 C   0  0  0  0  0  0  0  0  0  0  0  0
    1.1081   -1.8207   -0.3071 O   0  0  0  0  0  0  0  0  0  0  0  0
   -0.2936    0.0741   -0.1172 C   0  0  0  0  0  0  0  0  0  0  0  0
   -0.4961    1.3771    0.0176 C   0  0  0  0  0  0  0  0  0  0  0  0
    0.4995    2.3872    0.1285 N   0  0  0  0  0  0  0  0  0  0  0  0
   -1.8916    1.6301    0.0362 N   0  0  0  0  0  0  0  0  0  0  0  0
   -2.5364    0.3452    0.3109 C   0  0  0  0  0  3  0  0  0  0  0  0
   -2.7144    0.1761    1.6879 O   0  0  0  0  0  0  0  0  0  0  0  0
   -1.5424   -0.6058   -0.1951 N   0  0  0  0  0  0  0  0  0  0  0  0
   -1.7841   -1.9538   -0.6731 C   0  0  0  0  0  0  0  0  0  0  0  0
    3.3439   -1.4930   -0.6689 H   0  0  0  0  0  0  0  0  0  0  0  0
    3.7834   -0.6304    0.8970 H   0  0  0  0  0  0  0  0  0  0  0  0
    4.1877    0.1534   -0.6555 H   0  0  0  0  0  0  0  0  0  0  0  0
    0.5785    2.9575    1.0027 H   0  0  0  0  0  0  0  0  0  0  0  0
    1.1600    2.5700   -0.6583 H   0  0  0  0  0  0  0  0  0  0  0  0
   -2.4120    2.5380   -0.1112 H   0  0  0  0  0  0  0  0  0  0  0  0
   -1.8153    0.1513    2.1455 H   0  0  0  0  0  0  0  0  0  0  0  0
   -2.8714   -2.0300   -0.9683 H   0  0  0  0  0  0  0  0  0  0  0  0
   -1.6555   -2.7080    0.1388 H   0  0  0  0  0  0  0  0  0  0  0  0
   -1.2145   -2.1924   -1.5799 H   0  0  0  0  0  0  0  0  0  0  0  0
  1  2  1  0
  2  3  1  0
  3  4  2  0
  3  5  1  0
  5  6  2  0
  6  7  1  0
  6  8  1  0
  8  9  1  0
  9 10  1  0
  9 11  1  0
 11 12  1  0
 11  5  1  0
  1 13  1  0
  1 14  1  0
  1 15  1  0
  7 16  1  0
  7 17  1  0
  8 18  1  0
 10 19  1  0
 12 20  1  0
 12 21  1  0
 12 22  1  0
M  CHG  1   9  -1
M  END
$$$$

     RDKit          3D

 22 22  0  0  0  0  0  0  0  0999 V2000
    3.0415   -1.5393    0.4572 C   0  0  0  0  0  0  0  0  0  0  0  0
    1.6942   -1.1852    0.3203 O   0  0  0  0  0  0  0  0  0  0  0  0
    1.2348    0.0275   -0.1432 C   0  0  0  0  0  0  0  0  0  0  0  0
    2.1028    0.8768   -0.4662 O   0  0  0  0  0  0  0  0  0  0  0  0
   -0.2068    0.3296   -0.2604 C   0  0  0  0  0  0  0  0  0  0  0  0
   -0.6889    1.4798   -0.7000 C   0  0  0  0  0  0  0  0  0  0  0  0
    0.1226    2.5795   -1.1187 N   0  0  0  0  0  0  0  0  0  0  0  0
   -2.1299    1.4313   -0.6834 N   0  0  0  0  0  0  0  0  0  0  0  0
   -2.4930    0.2612    0.0533 C   0  0  0  0  0  3  0  0  0  0  0  0
   -2.8165    0.5252    1.3789 O   0  0  0  0  0  0  0  0  0  0  0  0
   -1.2781   -0.5420    0.0709 N   0  0  0  0  0  0  0  0  0  0  0  0
   -1.1138   -1.9473    0.3578 C   0  0  0  0  0  0  0  0  0  0  0  0
    3.7501   -0.7497    0.1445 H   0  0  0  0  0  0  0  0  0  0  0  0
    3.2278   -1.7040    1.5427 H   0  0  0  0  0  0  0  0  0  0  0  0
    3.2552   -2.4477   -0.1303 H   0  0  0  0  0  0  0  0  0  0  0  0
    0.7247    2.5530   -1.9680 H   0  0  0  0  0  0  0  0  0  0  0  0
    0.1169    3.4445   -0.5578 H   0  0  0  0  0  0  0  0  0  0  0  0
   -2.7155    2.1539   -1.1463 H   0  0  0  0  0  0  0  0  0  0  0  0
   -2.6905    1.4784    1.6199 H   0  0  0  0  0  0  0  0  0  0  0  0
   -0.3582   -2.0774    1.1674 H   0  0  0  0  0  0  0  0  0  0  0  0
   -2.0783   -2.4378    0.5892 H   0  0  0  0  0  0  0  0  0  0  0  0
   -0.7009   -2.5103   -0.5279 H   0  0  0  0  0  0  0  0  0  0  0  0
  1  2  1  0
  2  3  1  0
  3  4  2  0
  3  5  1  0
  5  6  2  0
  6  7  1  0
  6  8  1  0
  8  9  1  0
  9 10  1  0
  9 11  1  0
 11 12  1  0
 11  5  1  0
  1 13  1  0
  1 14  1  0
  1 15  1  0
  7 16  1  0
  7 17  1  0
  8 18  1  0
 10 19  1  0
 12 20  1  0
 12 21  1  0
 12 22  1  0
M  CHG  1   9  -1
M  END
$$$$

     RDKit          3D

 22 22  0  0  0  0  0  0  0  0999 V2000
    3.4314   -0.1376   -0.9293 C   0  0  0  0  0  0  0  0  0  0  0  0
    2.2425   -0.0880   -0.1655 O   0  0  0  0  0  0  0  0  0  0  0  0
    0.9731   -0.1655   -0.7133 C   0  0  0  0  0  0  0  0  0  0  0  0
    0.9019   -0.2864   -1.9604 O   0  0  0  0  0  0  0  0  0  0  0  0
   -0.2335   -0.1113    0.1020 C   0  0  0  0  0  0  0  0  0  0  0  0
   -0.2541    0.0160    1.4352 C   0  0  0  0  0  0  0  0  0  0  0  0
    0.9233    0.1156    2.2322 N   0  0  0  0  0  0  0  0  0  0  0  0
   -1.6116    0.0303    1.8650 N   0  0  0  0  0  0  0  0  0  0  0  0
   -2.4475    0.3196    0.6932 C   0  0  0  0  0  3  0  0  0  0  0  0
   -2.4758    1.7194    0.5095 O   0  0  0  0  0  0  0  0  0  0  0  0
   -1.5714   -0.1835   -0.3753 N   0  0  0  0  0  0  0  0  0  0  0  0
   -1.9995   -0.6641   -1.6760 C   0  0  0  0  0  0  0  0  0  0  0  0
    3.1932   -0.3574   -2.0000 H   0  0  0  0  0  0  0  0  0  0  0  0
    3.8844    0.8937   -0.8609 H   0  0  0  0  0  0  0  0  0  0  0  0
    4.1168   -0.8999   -0.5032 H   0  0  0  0  0  0  0  0  0  0  0  0
    1.7207   -0.5474    2.1269 H   0  0  0  0  0  0  0  0  0  0  0  0
    1.0149    0.8704    2.9540 H   0  0  0  0  0  0  0  0  0  0  0  0
   -1.9008   -0.1393    2.8410 H   0  0  0  0  0  0  0  0  0  0  0  0
   -3.4281    2.0357    0.4262 H   0  0  0  0  0  0  0  0  0  0  0  0
   -2.0218   -1.7923   -1.7000 H   0  0  0  0  0  0  0  0  0  0  0  0
   -3.0818   -0.3761   -1.8190 H   0  0  0  0  0  0  0  0  0  0  0  0
   -1.3762   -0.2519   -2.4826 H   0  0  0  0  0  0  0  0  0  0  0  0
  1  2  1  0
  2  3  1  0
  3  4  2  0
  3  5  1  0
  5  6  2  0
  6  7  1  0
  6  8  1  0
  8  9  1  0
  9 10  1  0
  9 11  1  0
 11 12  1  0
 11  5  1  0
  1 13  1  0
  1 14  1  0
  1 15  1  0
  7 16  1  0
  7 17  1  0
  8 18  1  0
 10 19  1  0
 12 20  1  0
 12 21  1  0
 12 22  1  0
M  CHG  1   9  -1
M  END
$$$$

     RDKit          3D

 22 22  0  0  0  0  0  0  0  0999 V2000
    3.4107    0.3151    0.2505 C   0  0  0  0  0  0  0  0  0  0  0  0
    2.0697   -0.1232    0.0832 O   0  0  0  0  0  0  0  0  0  0  0  0
    0.9991    0.7546    0.0445 C   0  0  0  0  0  0  0  0  0  0  0  0
    1.2451    1.9763    0.1633 O   0  0  0  0  0  0  0  0  0  0  0  0
   -0.3857    0.2950   -0.1287 C   0  0  0  0  0  0  0  0  0  0  0  0
   -1.4453    1.0756   -0.1739 C   0  0  0  0  0  0  0  0  0  0  0  0
   -1.4415    2.5104   -0.0631 N   0  0  0  0  0  0  0  0  0  0  0  0
   -2.6092    0.2825   -0.3470 N   0  0  0  0  0  0  0  0  0  0  0  0
   -2.2485   -1.0891   -0.0580 C   0  0  0  0  0  3  0  0  0  0  0  0
   -2.4434   -1.2731    1.3153 O   0  0  0  0  0  0  0  0  0  0  0  0
   -0.8176   -1.0430   -0.2783 N   0  0  0  0  0  0  0  0  0  0  0  0
    0.0684   -2.1716   -0.6034 C   0  0  0  0  0  0  0  0  0  0  0  0
    3.5554    0.7964    1.2469 H   0  0  0  0  0  0  0  0  0  0  0  0
    3.5865    1.1024   -0.5023 H   0  0  0  0  0  0  0  0  0  0  0  0
    4.0822   -0.5232    0.0748 H   0  0  0  0  0  0  0  0  0  0  0  0
   -0.7558    3.0498   -0.6036 H   0  0  0  0  0  0  0  0  0  0  0  0
   -2.1292    2.9953    0.5602 H   0  0  0  0  0  0  0  0  0  0  0  0
   -3.5622    0.5695   -0.6249 H   0  0  0  0  0  0  0  0  0  0  0  0
   -1.9878   -2.0796    1.6505 H   0  0  0  0  0  0  0  0  0  0  0  0
    0.3535   -2.1326   -1.6791 H   0  0  0  0  0  0  0  0  0  0  0  0
   -0.5082   -3.1054   -0.3750 H   0  0  0  0  0  0  0  0  0  0  0  0
    0.9637   -2.1823    0.0479 H   0  0  0  0  0  0  0  0  0  0  0  0
  1  2  1  0
  2  3  1  0
  3  4  2  0
  3  5  1  0
  5  6  2  0
  6  7  1  0
  6  8  1  0
  8  9  1  0
  9 10  1  0
  9 11  1  0
 11 12  1  0
 11  5  1  0
  1 13  1  0
  1 14  1  0
  1 15  1  0
  7 16  1  0
  7 17  1  0
  8 18  1  0
 10 19  1  0
 12 20  1  0
 12 21  1  0
 12 22  1  0
M  CHG  1   9  -1
M  END
$$$$

     RDKit          3D

 22 22  0  0  0  0  0  0  0  0999 V2000
    3.3996   -0.6748   -0.3904 C   0  0  0  0  0  0  0  0  0  0  0  0
    2.1823    0.0144   -0.1147 O   0  0  0  0  0  0  0  0  0  0  0  0
    0.9717   -0.6539   -0.1347 C   0  0  0  0  0  0  0  0  0  0  0  0
    0.9497   -1.8780   -0.3985 O   0  0  0  0  0  0  0  0  0  0  0  0
   -0.2835    0.0699    0.1525 C   0  0  0  0  0  0  0  0  0  0  0  0
   -0.4167    1.3538    0.4453 C   0  0  0  0  0  0  0  0  0  0  0  0
    0.6582    2.2932    0.5386 N   0  0  0  0  0  0  0  0  0  0  0  0
   -1.7922    1.6626    0.6516 N   0  0  0  0  0  0  0  0  0  0  0  0
   -2.5037    0.5900   -0.0141 C   0  0  0  0  0  3  0  0  0  0  0  0
   -2.5147    0.9022   -1.3760 O   0  0  0  0  0  0  0  0  0  0  0  0
   -1.5755   -0.5088    0.1637 N   0  0  0  0  0  0  0  0  0  0  0  0
   -1.9296   -1.9104    0.3192 C   0  0  0  0  0  0  0  0  0  0  0  0
    3.2890   -1.7610   -0.3748 H   0  0  0  0  0  0  0  0  0  0  0  0
    3.8770   -0.3006   -1.3250 H   0  0  0  0  0  0  0  0  0  0  0  0
    4.1041   -0.3716    0.4351 H   0  0  0  0  0  0  0  0  0  0  0  0
    0.8549    2.9719   -0.2256 H   0  0  0  0  0  0  0  0  0  0  0  0
    1.2759    2.3239    1.3773 H   0  0  0  0  0  0  0  0  0  0  0  0
   -2.1469    2.4881    1.1723 H   0  0  0  0  0  0  0  0  0  0  0  0
   -2.3563    0.1063   -1.9458 H   0  0  0  0  0  0  0  0  0  0  0  0
   -2.7271   -1.9463    1.0847 H   0  0  0  0  0  0  0  0  0  0  0  0
   -1.0611   -2.5028    0.6304 H   0  0  0  0  0  0  0  0  0  0  0  0
   -2.2550   -2.2678   -0.6711 H   0  0  0  0  0  0  0  0  0  0  0  0
  1  2  1  0
  2  3  1  0
  3  4  2  0
  3  5  1  0
  5  6  2  0
  6  7  1  0
  6  8  1  0
  8  9  1  0
  9 10  1  0
  9 11  1  0
 11 12  1  0
 11  5  1  0
  1 13  1  0
  1 14  1  0
  1 15  1  0
  7 16  1  0
  7 17  1  0
  8 18  1  0
 10 19  1  0
 12 20  1  0
 12 21  1  0
 12 22  1  0
M  CHG  1   9  -1
M  END
$$$$

     RDKit          3D

 22 22  0  0  0  0  0  0  0  0999 V2000
    3.0258   -1.4419   -0.5704 C   0  0  0  0  0  0  0  0  0  0  0  0
    1.6504   -1.1313   -0.4520 O   0  0  0  0  0  0  0  0  0  0  0  0
    1.2400    0.1446   -0.1246 C   0  0  0  0  0  0  0  0  0  0  0  0
    2.1617    1.0014    0.0590 O   0  0  0  0  0  0  0  0  0  0  0  0
   -0.1701    0.5072    0.0076 C   0  0  0  0  0  0  0  0  0  0  0  0
   -0.6276    1.7077    0.3178 C   0  0  0  0  0  0  0  0  0  0  0  0
    0.2114    2.8306    0.5696 N   0  0  0  0  0  0  0  0  0  0  0  0
   -2.0661    1.6593    0.3494 N   0  0  0  0  0  0  0  0  0  0  0  0
   -2.4792    0.2739    0.1359 C   0  0  0  0  0  3  0  0  0  0  0  0
   -2.9943   -0.1482    1.3789 O   0  0  0  0  0  0  0  0  0  0  0  0
   -1.2429   -0.4055   -0.1852 N   0  0  0  0  0  0  0  0  0  0  0  0
   -1.1316   -1.7843   -0.6276 C   0  0  0  0  0  0  0  0  0  0  0  0
    3.3316   -1.2664   -1.6279 H   0  0  0  0  0  0  0  0  0  0  0  0
    3.6411   -0.7753    0.0690 H   0  0  0  0  0  0  0  0  0  0  0  0
    3.2513   -2.4797   -0.2422 H   0  0  0  0  0  0  0  0  0  0  0  0
    0.3610    3.5562   -0.1631 H   0  0  0  0  0  0  0  0  0  0  0  0
    0.6623    2.8964    1.5007 H   0  0  0  0  0  0  0  0  0  0  0  0
   -2.6783    2.4764    0.4988 H   0  0  0  0  0  0  0  0  0  0  0  0
   -2.9435   -1.1238    1.4453 H   0  0  0  0  0  0  0  0  0  0  0  0
   -0.3842   -1.8719   -1.4703 H   0  0  0  0  0  0  0  0  0  0  0  0
   -2.0760   -2.1694   -1.0343 H   0  0  0  0  0  0  0  0  0  0  0  0
   -0.7429   -2.4562    0.1656 H   0  0  0  0  0  0  0  0  0  0  0  0
  1  2  1  0
  2  3  1  0
  3  4  2  0
  3  5  1  0
  5  6  2  0
  6  7  1  0
  6  8  1  0
  8  9  1  0
  9 10  1  0
  9 11  1  0
 11 12  1  0
 11  5  1  0
  1 13  1  0
  1 14  1  0
  1 15  1  0
  7 16  1  0
  7 17  1  0
  8 18  1  0
 10 19  1  0
 12 20  1  0
 12 21  1  0
 12 22  1  0
M  CHG  1   9  -1
M  END
$$$$
