
     RDKit          3D

 22 22  0  0  0  0  0  0  0  0999 V2000
   -1.3467   -0.8903    0.8995 N   0  0  0  0  0  0  0  0  0  0  0  0
   -0.4510   -1.0112   -0.2100 C   0  0  2  0  0  0  0  0  0  0  0  0
    0.8487   -1.6764    0.1451 C   0  0  0  0  0  0  0  0  0  0  0  0
    1.6325   -0.9943    1.0134 O   0  0  0  0  0  0  0  0  0  0  0  0
    1.8105    0.3335    0.8023 C   0  0  0  0  0  0  0  0  0  0  0  0
    0.6036    1.0917    0.3656 C   0  0  0  0  0  0  0  0  0  0  0  0
   -0.1652    0.3969   -0.7325 C   0  0  1  0  0  0  0  0  0  0  0  0
    0.5710    0.3104   -1.9051 O   0  0  0  0  0  0  0  0  0  0  0  0
   -1.4146    1.1336   -0.9539 C   0  0  0  0  0  0  0  0  0  0  0  0
   -1.6768    1.5820   -2.1015 O   0  0  0  0  0  0  0  0  0  0  0  0
   -2.3309    1.3648    0.0429 O   0  0  0  0  0  0  0  0  0  0  0  0
   -2.3426   -1.0798    0.6581 H   0  0  0  0  0  0  0  0  0  0  0  0
   -1.0277   -1.3875    1.7562 H   0  0  0  0  0  0  0  0  0  0  0  0
   -0.9213   -1.5706   -1.0401 H   0  0  0  0  0  0  0  0  0  0  0  0
    1.3677   -1.9192   -0.8225 H   0  0  0  0  0  0  0  0  0  0  0  0
    0.5934   -2.6614    0.5975 H   0  0  0  0  0  0  0  0  0  0  0  0
    2.1441    0.7900    1.7814 H   0  0  0  0  0  0  0  0  0  0  0  0
    2.6611    0.5697    0.1003 H   0  0  0  0  0  0  0  0  0  0  0  0
    0.9469    2.0748   -0.0432 H   0  0  0  0  0  0  0  0  0  0  0  0
   -0.0934    1.2704    1.2016 H   0  0  0  0  0  0  0  0  0  0  0  0
    1.5102    0.0759   -1.6434 H   0  0  0  0  0  0  0  0  0  0  0  0
   -2.9196    2.1971    0.0884 H   0  0  0  0  0  0  0  0  0  0  0  0
  1  2  1  0
  2  3  1  0
  3  4  1  0
  4  5  1  0
  5  6  1  0
  6  7  1  0
  7  8  1  6
  7  9  1  0
  9 10  2  0
  9 11  1  0
  7  2  1  0
  1 12  1  0
  1 13  1  0
  2 14  1  6
  3 15  1  0
  3 16  1  0
  5 17  1  0
  5 18  1  0
  6 19  1  0
  6 20  1  0
  8 21  1  0
 11 22  1  0
M  END
$$$$

     RDKit          3D

 22 22  0  0  0  0  0  0  0  0999 V2000
    0.9868    1.6524    0.9003 N   0  0  0  0  0  0  0  0  0  0  0  0
    0.1389    1.0822   -0.1533 C   0  0  2  0  0  0  0  0  0  0  0  0
   -1.2835    1.4216    0.1983 C   0  0  0  0  0  0  0  0  0  0  0  0
   -2.2202    0.5974   -0.3399 O   0  0  0  0  0  0  0  0  0  0  0  0
   -2.0190   -0.7362   -0.2298 C   0  0  0  0  0  0  0  0  0  0  0  0
   -0.7248   -1.1699    0.3513 C   0  0  0  0  0  0  0  0  0  0  0  0
    0.3936   -0.3803   -0.2764 C   0  0  1  0  0  0  0  0  0  0  0  0
    0.3884   -0.7103   -1.6505 O   0  0  0  0  0  0  0  0  0  0  0  0
    1.6979   -0.7836    0.3093 C   0  0  0  0  0  0  0  0  0  0  0  0
    1.8866   -0.5674    1.5304 O   0  0  0  0  0  0  0  0  0  0  0  0
    2.6707   -1.3737   -0.4514 O   0  0  0  0  0  0  0  0  0  0  0  0
    1.9905    1.6898    0.6036 H   0  0  0  0  0  0  0  0  0  0  0  0
    0.6839    2.6314    1.0841 H   0  0  0  0  0  0  0  0  0  0  0  0
    0.4296    1.6179   -1.0849 H   0  0  0  0  0  0  0  0  0  0  0  0
   -1.4717    2.4528   -0.2066 H   0  0  0  0  0  0  0  0  0  0  0  0
   -1.4043    1.5408    1.3112 H   0  0  0  0  0  0  0  0  0  0  0  0
   -2.8402   -1.2261    0.3698 H   0  0  0  0  0  0  0  0  0  0  0  0
   -2.1239   -1.2009   -1.2513 H   0  0  0  0  0  0  0  0  0  0  0  0
   -0.5587   -2.2427    0.0382 H   0  0  0  0  0  0  0  0  0  0  0  0
   -0.6868   -1.1591    1.4474 H   0  0  0  0  0  0  0  0  0  0  0  0
    0.4158   -1.6948   -1.7547 H   0  0  0  0  0  0  0  0  0  0  0  0
    3.6504   -1.4411   -0.1550 H   0  0  0  0  0  0  0  0  0  0  0  0
  1  2  1  0
  2  3  1  0
  3  4  1  0
  4  5  1  0
  5  6  1  0
  6  7  1  0
  7  8  1  6
  7  9  1  0
  9 10  2  0
  9 11  1  0
  7  2  1  0
  1 12  1  0
  1 13  1  0
  2 14  1  6
  3 15  1  0
  3 16  1  0
  5 17  1  0
  5 18  1  0
  6 19  1  0
  6 20  1  0
  8 21  1  0
 11 22  1  0
M  END
$$$$

     RDKit          3D

 22 22  0  0  0  0  0  0  0  0999 V2000
    1.3083   -0.7480   -1.1783 N   0  0  0  0  0  0  0  0  0  0  0  0
    0.9849   -0.4633    0.2015 C   0  0  2  0  0  0  0  0  0  0  0  0
    0.3053   -1.6588    0.8453 C   0  0  0  0  0  0  0  0  0  0  0  0
   -1.0656   -1.4494    1.0122 O   0  0  0  0  0  0  0  0  0  0  0  0
   -1.6791   -1.0736   -0.1881 C   0  0  0  0  0  0  0  0  0  0  0  0
   -1.1524    0.2387   -0.7077 C   0  0  0  0  0  0  0  0  0  0  0  0
   -0.0350    0.6723    0.2232 C   0  0  1  0  0  0  0  0  0  0  0  0
   -0.5518    0.7287    1.4951 O   0  0  0  0  0  0  0  0  0  0  0  0
    0.5572    1.9540   -0.1683 C   0  0  0  0  0  0  0  0  0  0  0  0
    1.0993    2.1640   -1.2888 O   0  0  0  0  0  0  0  0  0  0  0  0
    0.5347    3.0059    0.7173 O   0  0  0  0  0  0  0  0  0  0  0  0
    2.0423   -0.0586   -1.4763 H   0  0  0  0  0  0  0  0  0  0  0  0
    1.7099   -1.7188   -1.2915 H   0  0  0  0  0  0  0  0  0  0  0  0
    1.9184   -0.1912    0.7273 H   0  0  0  0  0  0  0  0  0  0  0  0
    0.5024   -2.5716    0.2559 H   0  0  0  0  0  0  0  0  0  0  0  0
    0.7344   -1.7487    1.8717 H   0  0  0  0  0  0  0  0  0  0  0  0
   -1.5251   -1.9171   -0.8894 H   0  0  0  0  0  0  0  0  0  0  0  0
   -2.7599   -0.9982    0.0051 H   0  0  0  0  0  0  0  0  0  0  0  0
   -1.9448    1.0178   -0.7226 H   0  0  0  0  0  0  0  0  0  0  0  0
   -0.7439    0.1473   -1.7368 H   0  0  0  0  0  0  0  0  0  0  0  0
   -1.5139    0.9489    1.5318 H   0  0  0  0  0  0  0  0  0  0  0  0
    1.2746    3.7199    0.7615 H   0  0  0  0  0  0  0  0  0  0  0  0
  1  2  1  0
  2  3  1  0
  3  4  1  0
  4  5  1  0
  5  6  1  0
  6  7  1  0
  7  8  1  1
  7  9  1  0
  9 10  2  0
  9 11  1  0
  7  2  1  0
  1 12  1  0
  1 13  1  0
  2 14  1  1
  3 15  1  0
  3 16  1  0
  5 17  1  0
  5 18  1  0
  6 19  1  0
  6 20  1  0
  8 21  1  0
 11 22  1  0
M  END
$$$$

     RDKit          3D

 22 22  0  0  0  0  0  0  0  0999 V2000
   -1.0939   -1.9481    0.0437 N   0  0  0  0  0  0  0  0  0  0  0  0
   -0.8333   -0.5296    0.0588 C   0  0  2  0  0  0  0  0  0  0  0  0
   -0.8709   -0.0249   -1.3479 C   0  0  0  0  0  0  0  0  0  0  0  0
   -0.0333    1.0684   -1.4782 O   0  0  0  0  0  0  0  0  0  0  0  0
   -0.1997    1.8859   -0.3729 C   0  0  0  0  0  0  0  0  0  0  0  0
    0.4843    1.3528    0.8483 C   0  0  0  0  0  0  0  0  0  0  0  0
    0.4452   -0.1801    0.7748 C   0  0  1  0  0  0  0  0  0  0  0  0
    0.3312   -0.6503    2.0757 O   0  0  0  0  0  0  0  0  0  0  0  0
    1.6434   -0.7264    0.1619 C   0  0  0  0  0  0  0  0  0  0  0  0
    2.3722   -1.4989    0.8364 O   0  0  0  0  0  0  0  0  0  0  0  0
    2.0757   -0.4728   -1.1318 O   0  0  0  0  0  0  0  0  0  0  0  0
   -1.9881   -2.2214    0.4721 H   0  0  0  0  0  0  0  0  0  0  0  0
   -1.0379   -2.3723   -0.9047 H   0  0  0  0  0  0  0  0  0  0  0  0
   -1.6601   -0.0599    0.6625 H   0  0  0  0  0  0  0  0  0  0  0  0
   -0.5761   -0.8478   -2.0588 H   0  0  0  0  0  0  0  0  0  0  0  0
   -1.8900    0.2776   -1.6760 H   0  0  0  0  0  0  0  0  0  0  0  0
   -1.2892    1.9708   -0.1521 H   0  0  0  0  0  0  0  0  0  0  0  0
    0.2005    2.8940   -0.6048 H   0  0  0  0  0  0  0  0  0  0  0  0
   -0.0360    1.6687    1.7891 H   0  0  0  0  0  0  0  0  0  0  0  0
    1.5333    1.6478    0.9531 H   0  0  0  0  0  0  0  0  0  0  0  0
   -0.1779   -0.0373    2.6586 H   0  0  0  0  0  0  0  0  0  0  0  0
    2.6005   -1.1961   -1.6080 H   0  0  0  0  0  0  0  0  0  0  0  0
  1  2  1  0
  2  3  1  0
  3  4  1  0
  4  5  1  0
  5  6  1  0
  6  7  1  0
  7  8  1  1
  7  9  1  0
  9 10  2  0
  9 11  1  0
  7  2  1  0
  1 12  1  0
  1 13  1  0
  2 14  1  1
  3 15  1  0
  3 16  1  0
  5 17  1  0
  5 18  1  0
  6 19  1  0
  6 20  1  0
  8 21  1  0
 11 22  1  0
M  END
$$$$

     RDKit          3D

 22 22  0  0  0  0  0  0  0  0999 V2000
    0.4559    1.8837    1.2015 N   0  0  0  0  0  0  0  0  0  0  0  0
   -0.2393    1.0978    0.2164 C   0  0  2  0  0  0  0  0  0  0  0  0
   -1.5347    0.5403    0.7516 C   0  0  0  0  0  0  0  0  0  0  0  0
   -2.2360   -0.1052   -0.2317 O   0  0  0  0  0  0  0  0  0  0  0  0
   -1.5593   -1.0983   -0.8854 C   0  0  0  0  0  0  0  0  0  0  0  0
   -0.2147   -0.7093   -1.4055 C   0  0  0  0  0  0  0  0  0  0  0  0
    0.6332    0.0184   -0.3833 C   0  0  1  0  0  0  0  0  0  0  0  0
    1.6963    0.6286   -1.0000 O   0  0  0  0  0  0  0  0  0  0  0  0
    1.0971   -0.9630    0.5935 C   0  0  0  0  0  0  0  0  0  0  0  0
    0.3288   -1.6613    1.2962 O   0  0  0  0  0  0  0  0  0  0  0  0
    2.4564   -1.1505    0.7714 O   0  0  0  0  0  0  0  0  0  0  0  0
    1.4551    2.0057    0.9576 H   0  0  0  0  0  0  0  0  0  0  0  0
   -0.0418    2.8116    1.2810 H   0  0  0  0  0  0  0  0  0  0  0  0
   -0.5085    1.7806   -0.6245 H   0  0  0  0  0  0  0  0  0  0  0  0
   -1.3912   -0.0544    1.6721 H   0  0  0  0  0  0  0  0  0  0  0  0
   -2.1482    1.4300    1.0641 H   0  0  0  0  0  0  0  0  0  0  0  0
   -2.1775   -1.4050   -1.7642 H   0  0  0  0  0  0  0  0  0  0  0  0
   -1.4798   -2.0184   -0.2485 H   0  0  0  0  0  0  0  0  0  0  0  0
    0.3344   -1.6657   -1.6459 H   0  0  0  0  0  0  0  0  0  0  0  0
   -0.2323   -0.1288   -2.3282 H   0  0  0  0  0  0  0  0  0  0  0  0
    2.4450    0.8050   -0.3672 H   0  0  0  0  0  0  0  0  0  0  0  0
    2.8610   -2.0416    1.0792 H   0  0  0  0  0  0  0  0  0  0  0  0
  1  2  1  0
  2  3  1  0
  3  4  1  0
  4  5  1  0
  5  6  1  0
  6  7  1  0
  7  8  1  6
  7  9  1  0
  9 10  2  0
  9 11  1  0
  7  2  1  0
  1 12  1  0
  1 13  1  0
  2 14  1  6
  3 15  1  0
  3 16  1  0
  5 17  1  0
  5 18  1  0
  6 19  1  0
  6 20  1  0
  8 21  1  0
 11 22  1  0
M  END
$$$$

     RDKit          3D

 22 22  0  0  0  0  0  0  0  0999 V2000
   -1.1282    1.8127    0.6144 N   0  0  0  0  0  0  0  0  0  0  0  0
   -0.8983    0.5516   -0.0476 C   0  0  2  0  0  0  0  0  0  0  0  0
   -1.3305   -0.5859    0.8079 C   0  0  0  0  0  0  0  0  0  0  0  0
   -0.8924   -1.8082    0.4937 O   0  0  0  0  0  0  0  0  0  0  0  0
   -0.1250   -2.0271   -0.5753 C   0  0  0  0  0  0  0  0  0  0  0  0
    0.7224   -0.9211   -1.0913 C   0  0  0  0  0  0  0  0  0  0  0  0
    0.5565    0.3804   -0.3433 C   0  0  1  0  0  0  0  0  0  0  0  0
    0.9382    1.4487   -1.1764 O   0  0  0  0  0  0  0  0  0  0  0  0
    1.4003    0.4465    0.8549 C   0  0  0  0  0  0  0  0  0  0  0  0
    1.2525   -0.4068    1.7577 O   0  0  0  0  0  0  0  0  0  0  0  0
    2.3765    1.4266    1.0466 O   0  0  0  0  0  0  0  0  0  0  0  0
   -1.2664    2.5448   -0.1390 H   0  0  0  0  0  0  0  0  0  0  0  0
   -1.9828    1.7715    1.2178 H   0  0  0  0  0  0  0  0  0  0  0  0
   -1.4511    0.4780   -1.0195 H   0  0  0  0  0  0  0  0  0  0  0  0
   -2.4608   -0.5909    0.8015 H   0  0  0  0  0  0  0  0  0  0  0  0
   -1.0803   -0.3684    1.8872 H   0  0  0  0  0  0  0  0  0  0  0  0
    0.5616   -2.8981   -0.3513 H   0  0  0  0  0  0  0  0  0  0  0  0
   -0.7621   -2.4040   -1.4203 H   0  0  0  0  0  0  0  0  0  0  0  0
    1.8071   -1.1619   -1.0702 H   0  0  0  0  0  0  0  0  0  0  0  0
    0.4975   -0.6902   -2.1659 H   0  0  0  0  0  0  0  0  0  0  0  0
    0.5370    1.3924   -2.0681 H   0  0  0  0  0  0  0  0  0  0  0  0
    2.7283    1.6093    1.9863 H   0  0  0  0  0  0  0  0  0  0  0  0
  1  2  1  0
  2  3  1  0
  3  4  1  0
  4  5  1  0
  5  6  1  0
  6  7  1  0
  7  8  1  6
  7  9  1  0
  9 10  2  0
  9 11  1  0
  7  2  1  0
  1 12  1  0
  1 13  1  0
  2 14  1  6
  3 15  1  0
  3 16  1  0
  5 17  1  0
  5 18  1  0
  6 19  1  0
  6 20  1  0
  8 21  1  0
 11 22  1  0
M  END
$$$$

     RDKit          3D

 22 22  0  0  0  0  0  0  0  0999 V2000
   -0.3583    2.0840   -0.6183 N   0  0  0  0  0  0  0  0  0  0  0  0
   -0.5593    0.6710   -0.7329 C   0  0  2  0  0  0  0  0  0  0  0  0
   -1.7823    0.2742    0.0572 C   0  0  0  0  0  0  0  0  0  0  0  0
   -2.0085   -1.0680   -0.1487 O   0  0  0  0  0  0  0  0  0  0  0  0
   -1.0138   -1.7731    0.5247 C   0  0  0  0  0  0  0  0  0  0  0  0
    0.3467   -1.5685   -0.0811 C   0  0  0  0  0  0  0  0  0  0  0  0
    0.6672   -0.1190   -0.3459 C   0  0  1  0  0  0  0  0  0  0  0  0
    1.5068   -0.1027   -1.4587 O   0  0  0  0  0  0  0  0  0  0  0  0
    1.4015    0.4752    0.7759 C   0  0  0  0  0  0  0  0  0  0  0  0
    0.8628    0.5766    1.8926 O   0  0  0  0  0  0  0  0  0  0  0  0
    2.6837    0.9233    0.6061 O   0  0  0  0  0  0  0  0  0  0  0  0
   -0.8593    2.5667   -1.3834 H   0  0  0  0  0  0  0  0  0  0  0  0
   -0.6761    2.4793    0.2917 H   0  0  0  0  0  0  0  0  0  0  0  0
   -0.7751    0.4368   -1.7962 H   0  0  0  0  0  0  0  0  0  0  0  0
   -1.6928    0.5325    1.1277 H   0  0  0  0  0  0  0  0  0  0  0  0
   -2.6399    0.8260   -0.3889 H   0  0  0  0  0  0  0  0  0  0  0  0
   -0.9809   -1.4587    1.5879 H   0  0  0  0  0  0  0  0  0  0  0  0
   -1.2782   -2.8475    0.4351 H   0  0  0  0  0  0  0  0  0  0  0  0
    0.3778   -2.1581   -1.0217 H   0  0  0  0  0  0  0  0  0  0  0  0
    1.0947   -1.9999    0.6211 H   0  0  0  0  0  0  0  0  0  0  0  0
    2.4533   -0.1743   -1.2304 H   0  0  0  0  0  0  0  0  0  0  0  0
    3.2299    1.4241    1.2862 H   0  0  0  0  0  0  0  0  0  0  0  0
  1  2  1  0
  2  3  1  0
  3  4  1  0
  4  5  1  0
  5  6  1  0
  6  7  1  0
  7  8  1  6
  7  9  1  0
  9 10  2  0
  9 11  1  0
  7  2  1  0
  1 12  1  0
  1 13  1  0
  2 14  1  6
  3 15  1  0
  3 16  1  0
  5 17  1  0
  5 18  1  0
  6 19  1  0
  6 20  1  0
  8 21  1  0
 11 22  1  0
M  END
$$$$

     RDKit          3D

 22 22  0  0  0  0  0  0  0  0999 V2000
    0.3506    1.8454    0.7129 N   0  0  0  0  0  0  0  0  0  0  0  0
   -0.3661    1.0543   -0.2672 C   0  0  2  0  0  0  0  0  0  0  0  0
   -1.6648    0.6153    0.3531 C   0  0  0  0  0  0  0  0  0  0  0  0
   -2.0703   -0.6455   -0.0615 O   0  0  0  0  0  0  0  0  0  0  0  0
   -1.1990   -1.6525    0.2733 C   0  0  0  0  0  0  0  0  0  0  0  0
    0.2275   -1.2094    0.3913 C   0  0  0  0  0  0  0  0  0  0  0  0
    0.5000   -0.1381   -0.6724 C   0  0  1  0  0  0  0  0  0  0  0  0
    0.1359   -0.6496   -1.8959 O   0  0  0  0  0  0  0  0  0  0  0  0
    1.9307    0.2193   -0.7169 C   0  0  0  0  0  0  0  0  0  0  0  0
    2.6278    0.0432   -1.7672 O   0  0  0  0  0  0  0  0  0  0  0  0
    2.6099    0.7650    0.3662 O   0  0  0  0  0  0  0  0  0  0  0  0
    0.6547    1.2718    1.5435 H   0  0  0  0  0  0  0  0  0  0  0  0
   -0.3238    2.5612    1.0975 H   0  0  0  0  0  0  0  0  0  0  0  0
   -0.5461    1.7132   -1.1374 H   0  0  0  0  0  0  0  0  0  0  0  0
   -1.6046    0.5742    1.4681 H   0  0  0  0  0  0  0  0  0  0  0  0
   -2.4952    1.3157    0.0681 H   0  0  0  0  0  0  0  0  0  0  0  0
   -1.2306   -2.4451   -0.5271 H   0  0  0  0  0  0  0  0  0  0  0  0
   -1.5516   -2.0775    1.2523 H   0  0  0  0  0  0  0  0  0  0  0  0
    0.9360   -2.0307    0.2762 H   0  0  0  0  0  0  0  0  0  0  0  0
    0.3388   -0.7390    1.4053 H   0  0  0  0  0  0  0  0  0  0  0  0
   -0.8117   -0.8087   -2.0262 H   0  0  0  0  0  0  0  0  0  0  0  0
    3.5519    0.4173    0.5946 H   0  0  0  0  0  0  0  0  0  0  0  0
  1  2  1  0
  2  3  1  0
  3  4  1  0
  4  5  1  0
  5  6  1  0
  6  7  1  0
  7  8  1  6
  7  9  1  0
  9 10  2  0
  9 11  1  0
  7  2  1  0
  1 12  1  0
  1 13  1  0
  2 14  1  6
  3 15  1  0
  3 16  1  0
  5 17  1  0
  5 18  1  0
  6 19  1  0
  6 20  1  0
  8 21  1  0
 11 22  1  0
M  END
$$$$
