
     RDKit          3D

 28 29  0  0  0  0  0  0  0  0999 V2000
    3.8447   -1.3175   -0.8205 C   0  0  0  0  0  0  0  0  0  0  0  0
    2.6518   -0.5658   -0.7854 O   0  0  0  0  0  0  0  0  0  0  0  0
    2.2311    0.1659    0.2974 C   0  0  0  0  0  0  0  0  0  0  0  0
    2.9619    0.1637    1.3273 O   0  0  0  0  0  0  0  0  0  0  0  0
    0.9522    0.9179    0.2114 C   0  0  2  0  0  0  0  0  0  0  0  0
    0.6752    1.6272    1.4460 N   0  0  0  0  0  0  0  0  0  0  0  0
   -0.7103    1.5499    1.7613 C   0  0  0  0  0  0  0  0  0  0  0  0
   -1.3251    1.8672    2.7974 O   0  0  0  0  0  0  0  0  0  0  0  0
   -1.3515    0.9836    0.5548 C   0  0  2  0  0  0  0  0  0  0  0  0
   -2.5472    0.1435    0.8325 C   0  0  0  0  0  0  0  0  0  0  0  0
   -2.7975   -0.7090   -0.3985 C   0  0  0  0  0  0  0  0  0  0  0  0
   -2.0174   -0.2640   -1.5369 N   0  0  0  0  0  0  0  0  0  0  0  0
   -0.5868   -0.3845   -1.2918 C   0  0  0  0  0  0  0  0  0  0  0  0
   -0.2467    0.0105    0.1080 C   0  0  1  0  0  0  0  0  0  0  0  0
    4.2055   -1.3057   -1.8697 H   0  0  0  0  0  0  0  0  0  0  0  0
    4.6042   -0.7191   -0.2461 H   0  0  0  0  0  0  0  0  0  0  0  0
    3.7415   -2.3260   -0.4173 H   0  0  0  0  0  0  0  0  0  0  0  0
    0.9634    1.5673   -0.6727 H   0  0  0  0  0  0  0  0  0  0  0  0
    1.3849    2.1241    2.0237 H   0  0  0  0  0  0  0  0  0  0  0  0
   -1.4913    1.7113   -0.2580 H   0  0  0  0  0  0  0  0  0  0  0  0
   -2.2738   -0.5707    1.6511 H   0  0  0  0  0  0  0  0  0  0  0  0
   -3.4451    0.7232    1.1284 H   0  0  0  0  0  0  0  0  0  0  0  0
   -2.6720   -1.7893   -0.2026 H   0  0  0  0  0  0  0  0  0  0  0  0
   -3.8631   -0.5653   -0.6743 H   0  0  0  0  0  0  0  0  0  0  0  0
   -2.2486   -0.8961   -2.3241 H   0  0  0  0  0  0  0  0  0  0  0  0
   -0.0595    0.1656   -2.0723 H   0  0  0  0  0  0  0  0  0  0  0  0
   -0.3543   -1.4848   -1.3948 H   0  0  0  0  0  0  0  0  0  0  0  0
   -0.2262   -0.8231    0.8256 H   0  0  0  0  0  0  0  0  0  0  0  0
  1  2  1  0
  2  3  1  0
  3  4  2  0
  3  5  1  0
  5  6  1  0
  6  7  1  0
  7  8  2  0
  7  9  1  0
  9 10  1  0
 10 11  1  0
 11 12  1  0
 12 13  1  0
 13 14  1  0
 14  5  1  0
 14  9  1  0
  1 15  1  0
  1 16  1  0
  1 17  1  0
  5 18  1  6
  6 19  1  0
  9 20  1  6
 10 21  1  0
 10 22  1  0
 11 23  1  0
 11 24  1  0
 12 25  1  0
 13 26  1  0
 13 27  1  0
 14 28  1  1
M  END
$$$$

     RDKit          3D

 28 29  0  0  0  0  0  0  0  0999 V2000
    4.0801    1.0314    0.4269 C   0  0  0  0  0  0  0  0  0  0  0  0
    2.7550    0.6714    0.7646 O   0  0  0  0  0  0  0  0  0  0  0  0
    2.1761   -0.4272    0.1406 C   0  0  0  0  0  0  0  0  0  0  0  0
    2.8823   -1.0414   -0.6999 O   0  0  0  0  0  0  0  0  0  0  0  0
    0.8159   -0.8946    0.4069 C   0  0  2  0  0  0  0  0  0  0  0  0
    0.5662   -2.0665   -0.4342 N   0  0  0  0  0  0  0  0  0  0  0  0
   -0.7858   -2.0591   -0.8650 C   0  0  0  0  0  0  0  0  0  0  0  0
   -1.2770   -2.8720   -1.6666 O   0  0  0  0  0  0  0  0  0  0  0  0
   -1.4370   -0.9530   -0.2003 C   0  0  2  0  0  0  0  0  0  0  0  0
   -2.4592   -0.1976   -0.9708 C   0  0  0  0  0  0  0  0  0  0  0  0
   -2.9211    0.9260   -0.0290 C   0  0  0  0  0  0  0  0  0  0  0  0
   -1.8570    1.7457    0.4323 N   0  0  0  0  0  0  0  0  0  0  0  0
   -0.7278    1.0254    0.9801 C   0  0  0  0  0  0  0  0  0  0  0  0
   -0.2622    0.0284   -0.0223 C   0  0  1  0  0  0  0  0  0  0  0  0
    4.0628    2.0446   -0.0519 H   0  0  0  0  0  0  0  0  0  0  0  0
    4.5325    0.3144   -0.3078 H   0  0  0  0  0  0  0  0  0  0  0  0
    4.7500    1.0611    1.3135 H   0  0  0  0  0  0  0  0  0  0  0  0
    0.6656   -1.1364    1.4785 H   0  0  0  0  0  0  0  0  0  0  0  0
    1.3045   -2.7892   -0.6655 H   0  0  0  0  0  0  0  0  0  0  0  0
   -1.7850   -1.1700    0.8306 H   0  0  0  0  0  0  0  0  0  0  0  0
   -3.3378   -0.7565   -1.2798 H   0  0  0  0  0  0  0  0  0  0  0  0
   -1.9624    0.3275   -1.8273 H   0  0  0  0  0  0  0  0  0  0  0  0
   -3.3562    0.3780    0.8565 H   0  0  0  0  0  0  0  0  0  0  0  0
   -3.6800    1.5465   -0.4990 H   0  0  0  0  0  0  0  0  0  0  0  0
   -1.6105    2.4788   -0.2376 H   0  0  0  0  0  0  0  0  0  0  0  0
   -1.0974    0.4785    1.8777 H   0  0  0  0  0  0  0  0  0  0  0  0
    0.0305    1.7859    1.2572 H   0  0  0  0  0  0  0  0  0  0  0  0
   -0.0651    0.5199   -1.0082 H   0  0  0  0  0  0  0  0  0  0  0  0
  1  2  1  0
  2  3  1  0
  3  4  2  0
  3  5  1  0
  5  6  1  0
  6  7  1  0
  7  8  2  0
  7  9  1  0
  9 10  1  0
 10 11  1  0
 11 12  1  0
 12 13  1  0
 13 14  1  0
 14  5  1  0
 14  9  1  0
  1 15  1  0
  1 16  1  0
  1 17  1  0
  5 18  1  1
  6 19  1  0
  9 20  1  1
 10 21  1  0
 10 22  1  0
 11 23  1  0
 11 24  1  0
 12 25  1  0
 13 26  1  0
 13 27  1  0
 14 28  1  6
M  END
$$$$

     RDKit          3D

 28 29  0  0  0  0  0  0  0  0999 V2000
    4.3371    0.9150   -0.5506 C   0  0  0  0  0  0  0  0  0  0  0  0
    2.9990    0.4059   -0.6346 O   0  0  0  0  0  0  0  0  0  0  0  0
    2.1678    0.4924    0.5802 C   0  0  0  0  0  0  0  0  0  0  0  0
    2.6892    1.0713    1.5066 O   0  0  0  0  0  0  0  0  0  0  0  0
    0.8875   -0.1077    0.5021 C   0  0  2  0  0  0  0  0  0  0  0  0
    1.0521   -1.5578    0.1039 N   0  0  0  0  0  0  0  0  0  0  0  0
   -0.1684   -1.9248   -0.5200 C   0  0  0  0  0  0  0  0  0  0  0  0
   -0.4036   -2.7898   -1.3960 O   0  0  0  0  0  0  0  0  0  0  0  0
   -1.1503   -1.0443    0.1213 C   0  0  2  0  0  0  0  0  0  0  0  0
   -2.4700   -0.9816   -0.4913 C   0  0  0  0  0  0  0  0  0  0  0  0
   -3.2187    0.2207   -0.0273 C   0  0  0  0  0  0  0  0  0  0  0  0
   -2.4434    1.4228    0.0166 N   0  0  0  0  0  0  0  0  0  0  0  0
   -1.1943    1.2872    0.7004 C   0  0  0  0  0  0  0  0  0  0  0  0
   -0.3497    0.2911   -0.0891 C   0  0  1  0  0  0  0  0  0  0  0  0
    4.9682    0.0287   -0.2525 H   0  0  0  0  0  0  0  0  0  0  0  0
    4.3978    1.5970    0.3258 H   0  0  0  0  0  0  0  0  0  0  0  0
    4.6467    1.2851   -1.5191 H   0  0  0  0  0  0  0  0  0  0  0  0
    0.5968   -0.3105    1.6509 H   0  0  0  0  0  0  0  0  0  0  0  0
    1.9034   -2.1095    0.2467 H   0  0  0  0  0  0  0  0  0  0  0  0
   -1.1318   -1.2578    1.1997 H   0  0  0  0  0  0  0  0  0  0  0  0
   -2.4526   -1.1266   -1.5872 H   0  0  0  0  0  0  0  0  0  0  0  0
   -3.0556   -1.8817   -0.1090 H   0  0  0  0  0  0  0  0  0  0  0  0
   -3.7367    0.0448    0.9396 H   0  0  0  0  0  0  0  0  0  0  0  0
   -4.0272    0.3978   -0.7707 H   0  0  0  0  0  0  0  0  0  0  0  0
   -2.3954    1.9376   -0.8666 H   0  0  0  0  0  0  0  0  0  0  0  0
   -0.6761    2.2785    0.7379 H   0  0  0  0  0  0  0  0  0  0  0  0
   -1.3822    0.8716    1.7253 H   0  0  0  0  0  0  0  0  0  0  0  0
   -0.3894    0.5442   -1.1860 H   0  0  0  0  0  0  0  0  0  0  0  0
  1  2  1  0
  2  3  1  0
  3  4  2  0
  3  5  1  0
  5  6  1  0
  6  7  1  0
  7  8  2  0
  7  9  1  0
  9 10  1  0
 10 11  1  0
 11 12  1  0
 12 13  1  0
 13 14  1  0
 14  5  1  0
 14  9  1  0
  1 15  1  0
  1 16  1  0
  1 17  1  0
  5 18  1  1
  6 19  1  0
  9 20  1  1
 10 21  1  0
 10 22  1  0
 11 23  1  0
 11 24  1  0
 12 25  1  0
 13 26  1  0
 13 27  1  0
 14 28  1  6
M  END
$$$$

     RDKit          3D

 28 29  0  0  0  0  0  0  0  0999 V2000
    3.7362    1.7216    0.1349 C   0  0  0  0  0  0  0  0  0  0  0  0
    2.5365    1.0626    0.4532 O   0  0  0  0  0  0  0  0  0  0  0  0
    2.2336   -0.2155    0.0034 C   0  0  0  0  0  0  0  0  0  0  0  0
    3.0302   -0.8375   -0.7134 O   0  0  0  0  0  0  0  0  0  0  0  0
    0.9487   -0.7932    0.4055 C   0  0  2  0  0  0  0  0  0  0  0  0
    0.7321   -2.1303   -0.1181 N   0  0  0  0  0  0  0  0  0  0  0  0
   -0.6866   -2.3211   -0.3269 C   0  0  0  0  0  0  0  0  0  0  0  0
   -1.2185   -3.2820   -0.9028 O   0  0  0  0  0  0  0  0  0  0  0  0
   -1.2997   -1.1317    0.2944 C   0  0  2  0  0  0  0  0  0  0  0  0
   -2.5908   -0.6974   -0.2811 C   0  0  0  0  0  0  0  0  0  0  0  0
   -2.8975    0.6430    0.4094 C   0  0  0  0  0  0  0  0  0  0  0  0
   -1.9126    1.6042    0.0208 N   0  0  0  0  0  0  0  0  0  0  0  0
   -0.5601    1.2300    0.4640 C   0  0  0  0  0  0  0  0  0  0  0  0
   -0.2488   -0.0842   -0.1245 C   0  0  1  0  0  0  0  0  0  0  0  0
    4.4780    0.9559   -0.1571 H   0  0  0  0  0  0  0  0  0  0  0  0
    3.5959    2.4463   -0.6816 H   0  0  0  0  0  0  0  0  0  0  0  0
    4.1181    2.1990    1.0674 H   0  0  0  0  0  0  0  0  0  0  0  0
    0.8448   -0.8697    1.5066 H   0  0  0  0  0  0  0  0  0  0  0  0
    1.4809   -2.8283   -0.3080 H   0  0  0  0  0  0  0  0  0  0  0  0
   -1.3040   -1.1632    1.4016 H   0  0  0  0  0  0  0  0  0  0  0  0
   -2.4516   -0.4506   -1.3508 H   0  0  0  0  0  0  0  0  0  0  0  0
   -3.4187   -1.4129   -0.1035 H   0  0  0  0  0  0  0  0  0  0  0  0
   -3.8839    1.0193    0.1680 H   0  0  0  0  0  0  0  0  0  0  0  0
   -2.7549    0.4408    1.5106 H   0  0  0  0  0  0  0  0  0  0  0  0
   -1.8771    1.7330   -1.0104 H   0  0  0  0  0  0  0  0  0  0  0  0
   -0.4950    1.2006    1.5658 H   0  0  0  0  0  0  0  0  0  0  0  0
    0.1103    1.9942    0.0206 H   0  0  0  0  0  0  0  0  0  0  0  0
   -0.2457   -0.0328   -1.2395 H   0  0  0  0  0  0  0  0  0  0  0  0
  1  2  1  0
  2  3  1  0
  3  4  2  0
  3  5  1  0
  5  6  1  0
  6  7  1  0
  7  8  2  0
  7  9  1  0
  9 10  1  0
 10 11  1  0
 11 12  1  0
 12 13  1  0
 13 14  1  0
 14  5  1  0
 14  9  1  0
  1 15  1  0
  1 16  1  0
  1 17  1  0
  5 18  1  1
  6 19  1  0
  9 20  1  1
 10 21  1  0
 10 22  1  0
 11 23  1  0
 11 24  1  0
 12 25  1  0
 13 26  1  0
 13 27  1  0
 14 28  1  6
M  END
$$$$

     RDKit          3D

 28 29  0  0  0  0  0  0  0  0999 V2000
    4.0144    0.9066    0.7687 C   0  0  0  0  0  0  0  0  0  0  0  0
    2.6878    0.4393    0.9815 O   0  0  0  0  0  0  0  0  0  0  0  0
    2.1651   -0.4769    0.0935 C   0  0  0  0  0  0  0  0  0  0  0  0
    2.8629   -0.8670   -0.8628 O   0  0  0  0  0  0  0  0  0  0  0  0
    0.8034   -0.9777    0.2839 C   0  0  2  0  0  0  0  0  0  0  0  0
    0.4899   -1.9212   -0.7719 N   0  0  0  0  0  0  0  0  0  0  0  0
   -0.8410   -1.6821   -1.2640 C   0  0  0  0  0  0  0  0  0  0  0  0
   -1.2625   -2.2030   -2.3240 O   0  0  0  0  0  0  0  0  0  0  0  0
   -1.4466   -0.7832   -0.2905 C   0  0  2  0  0  0  0  0  0  0  0  0
   -2.4797    0.1449   -0.8126 C   0  0  0  0  0  0  0  0  0  0  0  0
   -2.7490    1.1724    0.2760 C   0  0  0  0  0  0  0  0  0  0  0  0
   -2.0357    0.8951    1.4909 N   0  0  0  0  0  0  0  0  0  0  0  0
   -0.6066    0.8259    1.3229 C   0  0  0  0  0  0  0  0  0  0  0  0
   -0.2364    0.0930    0.0767 C   0  0  1  0  0  0  0  0  0  0  0  0
    4.1512    1.3439   -0.2308 H   0  0  0  0  0  0  0  0  0  0  0  0
    4.7432    0.0578    0.9142 H   0  0  0  0  0  0  0  0  0  0  0  0
    4.2170    1.6293    1.5958 H   0  0  0  0  0  0  0  0  0  0  0  0
    0.7042   -1.4319    1.2898 H   0  0  0  0  0  0  0  0  0  0  0  0
    1.1636   -2.6697   -1.1127 H   0  0  0  0  0  0  0  0  0  0  0  0
   -1.7349   -1.2826    0.6565 H   0  0  0  0  0  0  0  0  0  0  0  0
   -3.4073   -0.3533   -1.1550 H   0  0  0  0  0  0  0  0  0  0  0  0
   -2.0426    0.7062   -1.6705 H   0  0  0  0  0  0  0  0  0  0  0  0
   -2.5144    2.2053   -0.0546 H   0  0  0  0  0  0  0  0  0  0  0  0
   -3.8323    1.1090    0.5077 H   0  0  0  0  0  0  0  0  0  0  0  0
   -2.4399    0.1674    2.0842 H   0  0  0  0  0  0  0  0  0  0  0  0
   -0.1667    0.3120    2.1932 H   0  0  0  0  0  0  0  0  0  0  0  0
   -0.2419    1.8878    1.2248 H   0  0  0  0  0  0  0  0  0  0  0  0
    0.0350    0.7527   -0.7611 H   0  0  0  0  0  0  0  0  0  0  0  0
  1  2  1  0
  2  3  1  0
  3  4  2  0
  3  5  1  0
  5  6  1  0
  6  7  1  0
  7  8  2  0
  7  9  1  0
  9 10  1  0
 10 11  1  0
 11 12  1  0
 12 13  1  0
 13 14  1  0
 14  5  1  0
 14  9  1  0
  1 15  1  0
  1 16  1  0
  1 17  1  0
  5 18  1  1
  6 19  1  0
  9 20  1  1
 10 21  1  0
 10 22  1  0
 11 23  1  0
 11 24  1  0
 12 25  1  0
 13 26  1  0
 13 27  1  0
 14 28  1  6
M  END
$$$$

     RDKit          3D

 28 29  0  0  0  0  0  0  0  0999 V2000
   -4.0986    0.3504    0.5873 C   0  0  0  0  0  0  0  0  0  0  0  0
   -2.7678    0.4426    0.1315 O   0  0  0  0  0  0  0  0  0  0  0  0
   -2.1215   -0.5865   -0.5393 C   0  0  0  0  0  0  0  0  0  0  0  0
   -2.7568   -1.6510   -0.7489 O   0  0  0  0  0  0  0  0  0  0  0  0
   -0.7439   -0.3519   -0.9529 C   0  0  2  0  0  0  0  0  0  0  0  0
   -0.1678   -1.5147   -1.6537 N   0  0  0  0  0  0  0  0  0  0  0  0
    1.2360   -1.5100   -1.4345 C   0  0  0  0  0  0  0  0  0  0  0  0
    2.0316   -2.3691   -1.8510 O   0  0  0  0  0  0  0  0  0  0  0  0
    1.5178   -0.3276   -0.6491 C   0  0  2  0  0  0  0  0  0  0  0  0
    2.6480   -0.3687    0.2962 C   0  0  0  0  0  0  0  0  0  0  0  0
    2.6546    0.9855    0.9840 C   0  0  0  0  0  0  0  0  0  0  0  0
    1.4699    1.7460    0.7537 N   0  0  0  0  0  0  0  0  0  0  0  0
    0.2438    1.0157    0.9275 C   0  0  0  0  0  0  0  0  0  0  0  0
    0.2336   -0.2529    0.1889 C   0  0  1  0  0  0  0  0  0  0  0  0
   -4.6570   -0.4684    0.1126 H   0  0  0  0  0  0  0  0  0  0  0  0
   -4.0683    0.2692    1.6949 H   0  0  0  0  0  0  0  0  0  0  0  0
   -4.5789    1.3413    0.3703 H   0  0  0  0  0  0  0  0  0  0  0  0
   -0.6734    0.5092   -1.6338 H   0  0  0  0  0  0  0  0  0  0  0  0
   -0.7344   -2.1917   -2.2005 H   0  0  0  0  0  0  0  0  0  0  0  0
    1.5614    0.6001   -1.2549 H   0  0  0  0  0  0  0  0  0  0  0  0
    2.4691   -1.1475    1.0916 H   0  0  0  0  0  0  0  0  0  0  0  0
    3.6329   -0.6042   -0.1686 H   0  0  0  0  0  0  0  0  0  0  0  0
    3.5024    1.5555    0.4993 H   0  0  0  0  0  0  0  0  0  0  0  0
    2.9409    0.9111    2.0514 H   0  0  0  0  0  0  0  0  0  0  0  0
    1.4660    2.2965   -0.1251 H   0  0  0  0  0  0  0  0  0  0  0  0
    0.1658    0.7837    2.0311 H   0  0  0  0  0  0  0  0  0  0  0  0
   -0.5928    1.7106    0.7179 H   0  0  0  0  0  0  0  0  0  0  0  0
    0.1873   -1.1734    0.7739 H   0  0  0  0  0  0  0  0  0  0  0  0
  1  2  1  0
  2  3  1  0
  3  4  2  0
  3  5  1  0
  5  6  1  0
  6  7  1  0
  7  8  2  0
  7  9  1  0
  9 10  1  0
 10 11  1  0
 11 12  1  0
 12 13  1  0
 13 14  1  0
 14  5  1  0
 14  9  1  0
  1 15  1  0
  1 16  1  0
  1 17  1  0
  5 18  1  6
  6 19  1  0
  9 20  1  6
 10 21  1  0
 10 22  1  0
 11 23  1  0
 11 24  1  0
 12 25  1  0
 13 26  1  0
 13 27  1  0
 14 28  1  1
M  END
$$$$

     RDKit          3D

 28 29  0  0  0  0  0  0  0  0999 V2000
    4.3661   -0.3359   -0.5732 C   0  0  0  0  0  0  0  0  0  0  0  0
    3.2016   -0.1878    0.2046 O   0  0  0  0  0  0  0  0  0  0  0  0
    2.0809    0.5553   -0.1486 C   0  0  0  0  0  0  0  0  0  0  0  0
    2.1047    1.1986   -1.1988 O   0  0  0  0  0  0  0  0  0  0  0  0
    0.8257    0.5682    0.7271 C   0  0  2  0  0  0  0  0  0  0  0  0
    0.8951   -0.7290    1.3799 N   0  0  0  0  0  0  0  0  0  0  0  0
   -0.1435   -1.5402    0.8821 C   0  0  0  0  0  0  0  0  0  0  0  0
   -0.0548   -2.7763    0.8340 O   0  0  0  0  0  0  0  0  0  0  0  0
   -1.1942   -0.6525    0.5158 C   0  0  2  0  0  0  0  0  0  0  0  0
   -2.1268   -1.1312   -0.5279 C   0  0  0  0  0  0  0  0  0  0  0  0
   -3.0975    0.0046   -0.8024 C   0  0  0  0  0  0  0  0  0  0  0  0
   -2.5644    1.2824   -0.7767 N   0  0  0  0  0  0  0  0  0  0  0  0
   -1.2830    1.5719   -0.2681 C   0  0  0  0  0  0  0  0  0  0  0  0
   -0.3440    0.4207   -0.2228 C   0  0  1  0  0  0  0  0  0  0  0  0
    4.5857   -1.4687   -0.6605 H   0  0  0  0  0  0  0  0  0  0  0  0
    5.2398    0.0643   -0.0246 H   0  0  0  0  0  0  0  0  0  0  0  0
    4.2784    0.0491   -1.6257 H   0  0  0  0  0  0  0  0  0  0  0  0
    0.8353    1.4395    1.3437 H   0  0  0  0  0  0  0  0  0  0  0  0
    1.6352   -0.9037    2.1113 H   0  0  0  0  0  0  0  0  0  0  0  0
   -1.7453   -0.1044    1.3118 H   0  0  0  0  0  0  0  0  0  0  0  0
   -1.5776   -1.3428   -1.4583 H   0  0  0  0  0  0  0  0  0  0  0  0
   -2.6891   -2.0115   -0.1914 H   0  0  0  0  0  0  0  0  0  0  0  0
   -3.6005   -0.2072   -1.7693 H   0  0  0  0  0  0  0  0  0  0  0  0
   -3.9344   -0.1109   -0.0475 H   0  0  0  0  0  0  0  0  0  0  0  0
   -3.2655    1.9379   -0.3134 H   0  0  0  0  0  0  0  0  0  0  0  0
   -0.8760    2.4570   -0.7945 H   0  0  0  0  0  0  0  0  0  0  0  0
   -1.4143    1.9083    0.8065 H   0  0  0  0  0  0  0  0  0  0  0  0
   -0.1377    0.0445   -1.2223 H   0  0  0  0  0  0  0  0  0  0  0  0
  1  2  1  0
  2  3  1  0
  3  4  2  0
  3  5  1  0
  5  6  1  0
  6  7  1  0
  7  8  2  0
  7  9  1  0
  9 10  1  0
 10 11  1  0
 11 12  1  0
 12 13  1  0
 13 14  1  0
 14  5  1  0
 14  9  1  0
  1 15  1  0
  1 16  1  0
  1 17  1  0
  5 18  1  1
  6 19  1  0
  9 20  1  1
 10 21  1  0
 10 22  1  0
 11 23  1  0
 11 24  1  0
 12 25  1  0
 13 26  1  0
 13 27  1  0
 14 28  1  6
M  END
$$$$

     RDKit          3D

 28 29  0  0  0  0  0  0  0  0999 V2000
    3.8795    1.5385   -0.7832 C   0  0  0  0  0  0  0  0  0  0  0  0
    2.8717    0.9415   -0.0233 O   0  0  0  0  0  0  0  0  0  0  0  0
    2.0910   -0.0738   -0.4564 C   0  0  0  0  0  0  0  0  0  0  0  0
    2.2476   -0.5705   -1.6504 O   0  0  0  0  0  0  0  0  0  0  0  0
    1.0506   -0.6769    0.3523 C   0  0  2  0  0  0  0  0  0  0  0  0
    0.6907   -2.0441   -0.1025 N   0  0  0  0  0  0  0  0  0  0  0  0
   -0.5928   -2.3408    0.4417 C   0  0  0  0  0  0  0  0  0  0  0  0
   -1.1584   -3.4767    0.5437 O   0  0  0  0  0  0  0  0  0  0  0  0
   -1.1671   -1.0776    0.8913 C   0  0  2  0  0  0  0  0  0  0  0  0
   -2.5731   -0.7792    0.5226 C   0  0  0  0  0  0  0  0  0  0  0  0
   -2.8424    0.6155    0.1115 C   0  0  0  0  0  0  0  0  0  0  0  0
   -1.9135    1.6297    0.3837 N   0  0  0  0  0  0  0  0  0  0  0  0
   -0.5831    1.2339    0.7312 C   0  0  0  0  0  0  0  0  0  0  0  0
   -0.3221   -0.0713    0.1127 C   0  0  1  0  0  0  0  0  0  0  0  0
    4.6466    2.0301   -0.1147 H   0  0  0  0  0  0  0  0  0  0  0  0
    4.4758    0.8219   -1.3939 H   0  0  0  0  0  0  0  0  0  0  0  0
    3.4051    2.3361   -1.3953 H   0  0  0  0  0  0  0  0  0  0  0  0
    1.1975   -0.7344    1.4279 H   0  0  0  0  0  0  0  0  0  0  0  0
    1.3095   -2.6050   -0.7001 H   0  0  0  0  0  0  0  0  0  0  0  0
   -0.9758   -0.9617    1.9867 H   0  0  0  0  0  0  0  0  0  0  0  0
   -3.2162   -1.0688    1.4051 H   0  0  0  0  0  0  0  0  0  0  0  0
   -2.8758   -1.4970   -0.2829 H   0  0  0  0  0  0  0  0  0  0  0  0
   -3.8174    0.9431    0.5650 H   0  0  0  0  0  0  0  0  0  0  0  0
   -3.0813    0.6247   -0.9937 H   0  0  0  0  0  0  0  0  0  0  0  0
   -1.7979    2.2608   -0.4676 H   0  0  0  0  0  0  0  0  0  0  0  0
   -0.5024    1.1407    1.8410 H   0  0  0  0  0  0  0  0  0  0  0  0
    0.1663    2.0010    0.4034 H   0  0  0  0  0  0  0  0  0  0  0  0
   -0.6127   -0.1398   -0.9549 H   0  0  0  0  0  0  0  0  0  0  0  0
  1  2  1  0
  2  3  1  0
  3  4  2  0
  3  5  1  0
  5  6  1  0
  6  7  1  0
  7  8  2  0
  7  9  1  0
  9 10  1  0
 10 11  1  0
 11 12  1  0
 12 13  1  0
 13 14  1  0
 14  5  1  0
 14  9  1  0
  1 15  1  0
  1 16  1  0
  1 17  1  0
  5 18  1  1
  6 19  1  0
  9 20  1  1
 10 21  1  0
 10 22  1  0
 11 23  1  0
 11 24  1  0
 12 25  1  0
 13 26  1  0
 13 27  1  0
 14 28  1  6
M  END
$$$$
