
     RDKit          3D

 28 29  0  0  0  0  0  0  0  0999 V2000
    4.4638    0.8768    0.8833 C   0  0  0  0  0  0  0  0  0  0  0  0
    3.4723    0.9826   -0.0861 O   0  0  0  0  0  0  0  0  0  0  0  0
    2.6099   -0.0769    0.0381 C   0  0  2  0  0  0  0  0  0  0  0  0
    2.1635   -0.6351   -1.3191 C   0  0  0  0  0  0  0  0  0  0  0  0
    1.1942    0.0325   -0.4188 C   0  0  1  0  0  0  0  0  0  0  0  0
    0.1707   -0.8325    0.1733 C   0  0  0  0  0  0  0  0  0  0  0  0
    0.4166   -2.0203    0.5156 O   0  0  0  0  0  0  0  0  0  0  0  0
   -1.1542   -0.3174    0.3719 N   0  0  0  0  0  0  0  0  0  0  0  0
   -2.1748   -1.1775    0.9586 C   0  0  0  0  0  0  0  0  0  0  0  0
   -3.4948   -0.9143    0.2222 C   0  0  0  0  0  0  0  0  0  0  0  0
   -3.8497    0.4570    0.5404 N   0  0  0  0  0  0  0  0  0  0  0  0
   -2.7769    1.3805    0.6854 C   0  0  0  0  0  0  0  0  0  0  0  0
   -2.8911    2.4460    1.3564 O   0  0  0  0  0  0  0  0  0  0  0  0
   -1.5035    1.0321    0.0053 C   0  0  0  0  0  0  0  0  0  0  0  0
    5.1939    1.7070    0.8342 H   0  0  0  0  0  0  0  0  0  0  0  0
    4.9486   -0.1190    0.9013 H   0  0  0  0  0  0  0  0  0  0  0  0
    3.9436    0.9793    1.8758 H   0  0  0  0  0  0  0  0  0  0  0  0
    2.8449   -0.7896    0.8455 H   0  0  0  0  0  0  0  0  0  0  0  0
    2.2530   -1.7258   -1.3715 H   0  0  0  0  0  0  0  0  0  0  0  0
    2.4383   -0.1123   -2.2324 H   0  0  0  0  0  0  0  0  0  0  0  0
    0.8842    1.0439   -0.6840 H   0  0  0  0  0  0  0  0  0  0  0  0
   -2.3630   -0.9395    2.0177 H   0  0  0  0  0  0  0  0  0  0  0  0
   -1.9412   -2.2436    0.7864 H   0  0  0  0  0  0  0  0  0  0  0  0
   -3.3379   -1.0751   -0.8566 H   0  0  0  0  0  0  0  0  0  0  0  0
   -4.2644   -1.6022    0.6257 H   0  0  0  0  0  0  0  0  0  0  0  0
   -4.8322    0.7907    0.6653 H   0  0  0  0  0  0  0  0  0  0  0  0
   -1.6740    1.0722   -1.0851 H   0  0  0  0  0  0  0  0  0  0  0  0
   -0.7397    1.7805    0.2900 H   0  0  0  0  0  0  0  0  0  0  0  0
  1  2  1  0
  2  3  1  0
  3  4  1  0
  4  5  1  0
  5  6  1  0
  6  7  2  0
  6  8  1  0
  8  9  1  0
  9 10  1  0
 10 11  1  0
 11 12  1  0
 12 13  2  0
 12 14  1  0
  5  3  1  0
 14  8  1  0
  1 15  1  0
  1 16  1  0
  1 17  1  0
  3 18  1  1
  4 19  1  0
  4 20  1  0
  5 21  1  6
  9 22  1  0
  9 23  1  0
 10 24  1  0
 10 25  1  0
 11 26  1  0
 14 27  1  0
 14 28  1  0
M  END
$$$$

     RDKit          3D

 28 29  0  0  0  0  0  0  0  0999 V2000
    3.4280    1.3771   -1.5472 C   0  0  0  0  0  0  0  0  0  0  0  0
    3.2708    0.9016   -0.2595 O   0  0  0  0  0  0  0  0  0  0  0  0
    1.9140    0.7806    0.1054 C   0  0  2  0  0  0  0  0  0  0  0  0
    1.6093    1.1168    1.4991 C   0  0  0  0  0  0  0  0  0  0  0  0
    1.5512   -0.3098    1.0040 C   0  0  1  0  0  0  0  0  0  0  0  0
    0.2838   -1.0178    1.0820 C   0  0  0  0  0  0  0  0  0  0  0  0
    0.3668   -2.2426    1.6011 O   0  0  0  0  0  0  0  0  0  0  0  0
   -1.0102   -0.6828    0.7233 N   0  0  0  0  0  0  0  0  0  0  0  0
   -1.4230    0.5478    0.1350 C   0  0  0  0  0  0  0  0  0  0  0  0
   -1.8947    0.3397   -1.3054 C   0  0  0  0  0  0  0  0  0  0  0  0
   -2.5315   -0.9605   -1.3657 N   0  0  0  0  0  0  0  0  0  0  0  0
   -2.9558   -1.6744   -0.2239 C   0  0  0  0  0  0  0  0  0  0  0  0
   -4.0857   -2.2820   -0.2044 O   0  0  0  0  0  0  0  0  0  0  0  0
   -2.0679   -1.7128    0.9654 C   0  0  0  0  0  0  0  0  0  0  0  0
    2.9451    0.6939   -2.3047 H   0  0  0  0  0  0  0  0  0  0  0  0
    3.0150    2.4043   -1.6147 H   0  0  0  0  0  0  0  0  0  0  0  0
    4.4965    1.4363   -1.7803 H   0  0  0  0  0  0  0  0  0  0  0  0
    1.2595    1.0913   -0.7147 H   0  0  0  0  0  0  0  0  0  0  0  0
    0.7179    1.6805    1.7578 H   0  0  0  0  0  0  0  0  0  0  0  0
    2.4623    1.2981    2.2283 H   0  0  0  0  0  0  0  0  0  0  0  0
    2.4430   -0.9567    1.3289 H   0  0  0  0  0  0  0  0  0  0  0  0
   -0.7797    1.3856    0.1484 H   0  0  0  0  0  0  0  0  0  0  0  0
   -2.3597    0.8457    0.6999 H   0  0  0  0  0  0  0  0  0  0  0  0
   -2.6501    1.0996   -1.5079 H   0  0  0  0  0  0  0  0  0  0  0  0
   -1.0660    0.4368   -2.0187 H   0  0  0  0  0  0  0  0  0  0  0  0
   -2.6997   -1.4142   -2.3129 H   0  0  0  0  0  0  0  0  0  0  0  0
   -1.6091   -2.7068    1.0854 H   0  0  0  0  0  0  0  0  0  0  0  0
   -2.6301   -1.4754    1.8753 H   0  0  0  0  0  0  0  0  0  0  0  0
  1  2  1  0
  2  3  1  0
  3  4  1  0
  4  5  1  0
  5  6  1  0
  6  7  2  0
  6  8  1  0
  8  9  1  0
  9 10  1  0
 10 11  1  0
 11 12  1  0
 12 13  2  0
 12 14  1  0
  5  3  1  0
 14  8  1  0
  1 15  1  0
  1 16  1  0
  1 17  1  0
  3 18  1  6
  4 19  1  0
  4 20  1  0
  5 21  1  1
  9 22  1  0
  9 23  1  0
 10 24  1  0
 10 25  1  0
 11 26  1  0
 14 27  1  0
 14 28  1  0
M  END
$$$$

     RDKit          3D

 28 29  0  0  0  0  0  0  0  0999 V2000
    3.7947    1.5628   -0.6388 C   0  0  0  0  0  0  0  0  0  0  0  0
    3.2416    0.3471   -0.9804 O   0  0  0  0  0  0  0  0  0  0  0  0
    2.6168   -0.2962    0.0578 C   0  0  2  0  0  0  0  0  0  0  0  0
    2.4090   -1.7473    0.1086 C   0  0  0  0  0  0  0  0  0  0  0  0
    1.2331   -0.9033   -0.3152 C   0  0  1  0  0  0  0  0  0  0  0  0
    0.1508   -0.6876    0.6636 C   0  0  0  0  0  0  0  0  0  0  0  0
    0.4908   -0.6317    1.8946 O   0  0  0  0  0  0  0  0  0  0  0  0
   -1.1961   -0.5421    0.3486 N   0  0  0  0  0  0  0  0  0  0  0  0
   -2.1957   -0.3277    1.3836 C   0  0  0  0  0  0  0  0  0  0  0  0
   -3.3964    0.3959    0.8409 C   0  0  0  0  0  0  0  0  0  0  0  0
   -2.9631    1.3081   -0.1974 N   0  0  0  0  0  0  0  0  0  0  0  0
   -2.2537    0.7403   -1.2892 C   0  0  0  0  0  0  0  0  0  0  0  0
   -2.0932    1.2559   -2.4086 O   0  0  0  0  0  0  0  0  0  0  0  0
   -1.6616   -0.5980   -1.0292 C   0  0  0  0  0  0  0  0  0  0  0  0
    2.9953    2.2469   -0.2645 H   0  0  0  0  0  0  0  0  0  0  0  0
    4.5883    1.4956    0.1254 H   0  0  0  0  0  0  0  0  0  0  0  0
    4.2348    2.0076   -1.5537 H   0  0  0  0  0  0  0  0  0  0  0  0
    2.6296    0.2354    1.0473 H   0  0  0  0  0  0  0  0  0  0  0  0
    2.2976   -2.2285    1.1085 H   0  0  0  0  0  0  0  0  0  0  0  0
    2.8929   -2.4110   -0.6242 H   0  0  0  0  0  0  0  0  0  0  0  0
    1.0138   -0.9581   -1.3937 H   0  0  0  0  0  0  0  0  0  0  0  0
   -1.7716    0.3150    2.2025 H   0  0  0  0  0  0  0  0  0  0  0  0
   -2.4964   -1.3077    1.8166 H   0  0  0  0  0  0  0  0  0  0  0  0
   -3.8989    0.9758    1.6489 H   0  0  0  0  0  0  0  0  0  0  0  0
   -4.0965   -0.3558    0.3958 H   0  0  0  0  0  0  0  0  0  0  0  0
   -3.1417    2.3323   -0.1853 H   0  0  0  0  0  0  0  0  0  0  0  0
   -0.9138   -0.8769   -1.7605 H   0  0  0  0  0  0  0  0  0  0  0  0
   -2.5104   -1.3468   -1.0022 H   0  0  0  0  0  0  0  0  0  0  0  0
  1  2  1  0
  2  3  1  0
  3  4  1  0
  4  5  1  0
  5  6  1  0
  6  7  2  0
  6  8  1  0
  8  9  1  0
  9 10  1  0
 10 11  1  0
 11 12  1  0
 12 13  2  0
 12 14  1  0
  5  3  1  0
 14  8  1  0
  1 15  1  0
  1 16  1  0
  1 17  1  0
  3 18  1  1
  4 19  1  0
  4 20  1  0
  5 21  1  6
  9 22  1  0
  9 23  1  0
 10 24  1  0
 10 25  1  0
 11 26  1  0
 14 27  1  0
 14 28  1  0
M  END
$$$$

     RDKit          3D

 28 29  0  0  0  0  0  0  0  0999 V2000
   -4.5735    0.0398    0.8193 C   0  0  0  0  0  0  0  0  0  0  0  0
   -3.5946   -0.5037   -0.0060 O   0  0  0  0  0  0  0  0  0  0  0  0
   -2.5574    0.3888   -0.2641 C   0  0  2  0  0  0  0  0  0  0  0  0
   -1.9913    0.3539   -1.6134 C   0  0  0  0  0  0  0  0  0  0  0  0
   -1.1827   -0.1433   -0.4096 C   0  0  1  0  0  0  0  0  0  0  0  0
    0.0020    0.6645   -0.1216 C   0  0  0  0  0  0  0  0  0  0  0  0
   -0.1547    1.9273   -0.2831 O   0  0  0  0  0  0  0  0  0  0  0  0
    1.2629    0.2288    0.3016 N   0  0  0  0  0  0  0  0  0  0  0  0
    1.5780   -1.1475    0.5219 C   0  0  0  0  0  0  0  0  0  0  0  0
    2.7784   -1.6130   -0.2670 C   0  0  0  0  0  0  0  0  0  0  0  0
    3.5803   -0.5224   -0.7489 N   0  0  0  0  0  0  0  0  0  0  0  0
    3.4447    0.8268   -0.3571 C   0  0  0  0  0  0  0  0  0  0  0  0
    4.2644    1.6745   -0.7604 O   0  0  0  0  0  0  0  0  0  0  0  0
    2.3142    1.1930    0.5342 C   0  0  0  0  0  0  0  0  0  0  0  0
   -4.1937    0.3488    1.8060 H   0  0  0  0  0  0  0  0  0  0  0  0
   -5.0775    0.9126    0.3429 H   0  0  0  0  0  0  0  0  0  0  0  0
   -5.3589   -0.7361    0.9298 H   0  0  0  0  0  0  0  0  0  0  0  0
   -2.6777    1.3739    0.2227 H   0  0  0  0  0  0  0  0  0  0  0  0
   -1.7040    1.3131   -2.0774 H   0  0  0  0  0  0  0  0  0  0  0  0
   -2.2767   -0.4207   -2.3608 H   0  0  0  0  0  0  0  0  0  0  0  0
   -1.0839   -1.2234   -0.2731 H   0  0  0  0  0  0  0  0  0  0  0  0
    0.7140   -1.7929    0.3380 H   0  0  0  0  0  0  0  0  0  0  0  0
    1.8383   -1.2325    1.6181 H   0  0  0  0  0  0  0  0  0  0  0  0
    2.3810   -2.1541   -1.1600 H   0  0  0  0  0  0  0  0  0  0  0  0
    3.3533   -2.3450    0.3126 H   0  0  0  0  0  0  0  0  0  0  0  0
    4.3242   -0.7487   -1.4466 H   0  0  0  0  0  0  0  0  0  0  0  0
    2.6415    1.1197    1.5936 H   0  0  0  0  0  0  0  0  0  0  0  0
    1.9491    2.2182    0.3202 H   0  0  0  0  0  0  0  0  0  0  0  0
  1  2  1  0
  2  3  1  0
  3  4  1  0
  4  5  1  0
  5  6  1  0
  6  7  2  0
  6  8  1  0
  8  9  1  0
  9 10  1  0
 10 11  1  0
 11 12  1  0
 12 13  2  0
 12 14  1  0
  5  3  1  0
 14  8  1  0
  1 15  1  0
  1 16  1  0
  1 17  1  0
  3 18  1  1
  4 19  1  0
  4 20  1  0
  5 21  1  6
  9 22  1  0
  9 23  1  0
 10 24  1  0
 10 25  1  0
 11 26  1  0
 14 27  1  0
 14 28  1  0
M  END
$$$$

     RDKit          3D

 28 29  0  0  0  0  0  0  0  0999 V2000
    4.5093   -0.1907    1.4149 C   0  0  0  0  0  0  0  0  0  0  0  0
    3.6585    0.1574    0.3844 O   0  0  0  0  0  0  0  0  0  0  0  0
    2.4861   -0.5745    0.3628 C   0  0  2  0  0  0  0  0  0  0  0  0
    2.0686   -1.0003   -1.0432 C   0  0  0  0  0  0  0  0  0  0  0  0
    1.2240   -0.0423   -0.1754 C   0  0  1  0  0  0  0  0  0  0  0  0
   -0.0256   -0.6705    0.3154 C   0  0  0  0  0  0  0  0  0  0  0  0
   -0.0150   -1.8258    0.8619 O   0  0  0  0  0  0  0  0  0  0  0  0
   -1.2710    0.0052    0.1873 N   0  0  0  0  0  0  0  0  0  0  0  0
   -1.3503    1.3122   -0.4244 C   0  0  0  0  0  0  0  0  0  0  0  0
   -2.7727    1.7168   -0.7460 C   0  0  0  0  0  0  0  0  0  0  0  0
   -3.5596    0.5957   -1.1994 N   0  0  0  0  0  0  0  0  0  0  0  0
   -3.4434   -0.6312   -0.5018 C   0  0  0  0  0  0  0  0  0  0  0  0
   -4.0767   -1.6567   -0.8295 O   0  0  0  0  0  0  0  0  0  0  0  0
   -2.4927   -0.6006    0.6699 C   0  0  0  0  0  0  0  0  0  0  0  0
    5.4077    0.4582    1.3300 H   0  0  0  0  0  0  0  0  0  0  0  0
    4.0825   -0.0069    2.4219 H   0  0  0  0  0  0  0  0  0  0  0  0
    4.8594   -1.2370    1.2962 H   0  0  0  0  0  0  0  0  0  0  0  0
    2.4170   -1.3226    1.1751 H   0  0  0  0  0  0  0  0  0  0  0  0
    2.6091   -0.5762   -1.9051 H   0  0  0  0  0  0  0  0  0  0  0  0
    1.7432   -2.0363   -1.1473 H   0  0  0  0  0  0  0  0  0  0  0  0
    1.1200    0.9430   -0.6232 H   0  0  0  0  0  0  0  0  0  0  0  0
   -0.9527    2.0403    0.3335 H   0  0  0  0  0  0  0  0  0  0  0  0
   -0.7242    1.3545   -1.3611 H   0  0  0  0  0  0  0  0  0  0  0  0
   -3.2790    2.0878    0.1910 H   0  0  0  0  0  0  0  0  0  0  0  0
   -2.8091    2.5710   -1.4460 H   0  0  0  0  0  0  0  0  0  0  0  0
   -4.1835    0.7045   -2.0107 H   0  0  0  0  0  0  0  0  0  0  0  0
   -2.3228   -1.6340    1.0115 H   0  0  0  0  0  0  0  0  0  0  0  0
   -2.9072    0.0589    1.4570 H   0  0  0  0  0  0  0  0  0  0  0  0
  1  2  1  0
  2  3  1  0
  3  4  1  0
  4  5  1  0
  5  6  1  0
  6  7  2  0
  6  8  1  0
  8  9  1  0
  9 10  1  0
 10 11  1  0
 11 12  1  0
 12 13  2  0
 12 14  1  0
  5  3  1  0
 14  8  1  0
  1 15  1  0
  1 16  1  0
  1 17  1  0
  3 18  1  1
  4 19  1  0
  4 20  1  0
  5 21  1  6
  9 22  1  0
  9 23  1  0
 10 24  1  0
 10 25  1  0
 11 26  1  0
 14 27  1  0
 14 28  1  0
M  END
$$$$

     RDKit          3D

 28 29  0  0  0  0  0  0  0  0999 V2000
    3.5310    1.5105   -0.0142 C   0  0  0  0  0  0  0  0  0  0  0  0
    3.2771    0.2034   -0.3658 O   0  0  0  0  0  0  0  0  0  0  0  0
    2.0015   -0.2335    0.0458 C   0  0  2  0  0  0  0  0  0  0  0  0
    1.9129   -1.6420    0.5083 C   0  0  0  0  0  0  0  0  0  0  0  0
    1.2987   -1.2580   -0.7852 C   0  0  1  0  0  0  0  0  0  0  0  0
   -0.1268   -1.2494   -1.0722 C   0  0  0  0  0  0  0  0  0  0  0  0
   -0.4344   -1.7616   -2.2486 O   0  0  0  0  0  0  0  0  0  0  0  0
   -1.2176   -0.8051   -0.3461 N   0  0  0  0  0  0  0  0  0  0  0  0
   -1.1802   -0.2003    0.9389 C   0  0  0  0  0  0  0  0  0  0  0  0
   -1.3887    1.3065    0.7636 C   0  0  0  0  0  0  0  0  0  0  0  0
   -2.6318    1.4572    0.0181 N   0  0  0  0  0  0  0  0  0  0  0  0
   -3.2136    0.3997   -0.7275 C   0  0  0  0  0  0  0  0  0  0  0  0
   -4.3410    0.5929   -1.2742 O   0  0  0  0  0  0  0  0  0  0  0  0
   -2.5723   -0.9386   -0.9085 C   0  0  0  0  0  0  0  0  0  0  0  0
    4.5371    1.8298   -0.3478 H   0  0  0  0  0  0  0  0  0  0  0  0
    3.5028    1.6210    1.0985 H   0  0  0  0  0  0  0  0  0  0  0  0
    2.7648    2.2289   -0.4204 H   0  0  0  0  0  0  0  0  0  0  0  0
    1.4669    0.5670    0.5678 H   0  0  0  0  0  0  0  0  0  0  0  0
    2.8965   -2.2159    0.4924 H   0  0  0  0  0  0  0  0  0  0  0  0
    1.3538   -1.9055    1.4081 H   0  0  0  0  0  0  0  0  0  0  0  0
    1.9434   -1.6318   -1.6562 H   0  0  0  0  0  0  0  0  0  0  0  0
   -2.1141   -0.5037    1.5354 H   0  0  0  0  0  0  0  0  0  0  0  0
   -0.3670   -0.4311    1.6055 H   0  0  0  0  0  0  0  0  0  0  0  0
   -0.5857    1.7061    0.1358 H   0  0  0  0  0  0  0  0  0  0  0  0
   -1.4914    1.8333    1.7140 H   0  0  0  0  0  0  0  0  0  0  0  0
   -3.1269    2.3928    0.0293 H   0  0  0  0  0  0  0  0  0  0  0  0
   -2.5563   -1.2108   -1.9625 H   0  0  0  0  0  0  0  0  0  0  0  0
   -3.1389   -1.6617   -0.2665 H   0  0  0  0  0  0  0  0  0  0  0  0
  1  2  1  0
  2  3  1  0
  3  4  1  0
  4  5  1  0
  5  6  1  0
  6  7  2  0
  6  8  1  0
  8  9  1  0
  9 10  1  0
 10 11  1  0
 11 12  1  0
 12 13  2  0
 12 14  1  0
  5  3  1  0
 14  8  1  0
  1 15  1  0
  1 16  1  0
  1 17  1  0
  3 18  1  1
  4 19  1  0
  4 20  1  0
  5 21  1  6
  9 22  1  0
  9 23  1  0
 10 24  1  0
 10 25  1  0
 11 26  1  0
 14 27  1  0
 14 28  1  0
M  END
$$$$

     RDKit          3D

 28 29  0  0  0  0  0  0  0  0999 V2000
    4.4918    0.9709    1.1083 C   0  0  0  0  0  0  0  0  0  0  0  0
    3.5904    0.8139    0.0333 O   0  0  0  0  0  0  0  0  0  0  0  0
    2.6419   -0.1430    0.3451 C   0  0  2  0  0  0  0  0  0  0  0  0
    2.2254   -0.9976   -0.8281 C   0  0  0  0  0  0  0  0  0  0  0  0
    1.2855    0.0408   -0.2124 C   0  0  1  0  0  0  0  0  0  0  0  0
    0.0959   -0.5769    0.4240 C   0  0  0  0  0  0  0  0  0  0  0  0
    0.3160   -1.6047    1.1160 O   0  0  0  0  0  0  0  0  0  0  0  0
   -1.2091   -0.0970    0.3012 N   0  0  0  0  0  0  0  0  0  0  0  0
   -2.3024   -0.7753    0.9645 C   0  0  0  0  0  0  0  0  0  0  0  0
   -3.3295   -1.1079   -0.1199 C   0  0  0  0  0  0  0  0  0  0  0  0
   -3.8407    0.1508   -0.6055 N   0  0  0  0  0  0  0  0  0  0  0  0
   -2.9854    1.2786   -0.6047 C   0  0  0  0  0  0  0  0  0  0  0  0
   -3.4645    2.4584   -0.7054 O   0  0  0  0  0  0  0  0  0  0  0  0
   -1.5187    1.0855   -0.4857 C   0  0  0  0  0  0  0  0  0  0  0  0
    5.0231    0.0511    1.3515 H   0  0  0  0  0  0  0  0  0  0  0  0
    5.2140    1.7723    0.8564 H   0  0  0  0  0  0  0  0  0  0  0  0
    3.8836    1.2989    1.9830 H   0  0  0  0  0  0  0  0  0  0  0  0
    2.7396   -0.6036    1.3318 H   0  0  0  0  0  0  0  0  0  0  0  0
    2.0757   -2.0547   -0.5998 H   0  0  0  0  0  0  0  0  0  0  0  0
    2.6015   -0.7674   -1.8318 H   0  0  0  0  0  0  0  0  0  0  0  0
    1.0780    0.9371   -0.8134 H   0  0  0  0  0  0  0  0  0  0  0  0
   -1.9991   -1.7392    1.4034 H   0  0  0  0  0  0  0  0  0  0  0  0
   -2.7560   -0.1668    1.7681 H   0  0  0  0  0  0  0  0  0  0  0  0
   -4.1075   -1.7140    0.3872 H   0  0  0  0  0  0  0  0  0  0  0  0
   -2.7875   -1.6848   -0.9016 H   0  0  0  0  0  0  0  0  0  0  0  0
   -4.8137    0.2368   -0.9500 H   0  0  0  0  0  0  0  0  0  0  0  0
   -1.0445    2.0037   -0.0675 H   0  0  0  0  0  0  0  0  0  0  0  0
   -1.1038    0.9340   -1.5059 H   0  0  0  0  0  0  0  0  0  0  0  0
  1  2  1  0
  2  3  1  0
  3  4  1  0
  4  5  1  0
  5  6  1  0
  6  7  2  0
  6  8  1  0
  8  9  1  0
  9 10  1  0
 10 11  1  0
 11 12  1  0
 12 13  2  0
 12 14  1  0
  5  3  1  0
 14  8  1  0
  1 15  1  0
  1 16  1  0
  1 17  1  0
  3 18  1  1
  4 19  1  0
  4 20  1  0
  5 21  1  6
  9 22  1  0
  9 23  1  0
 10 24  1  0
 10 25  1  0
 11 26  1  0
 14 27  1  0
 14 28  1  0
M  END
$$$$

     RDKit          3D

 28 29  0  0  0  0  0  0  0  0999 V2000
   -4.3835   -1.0462    0.7023 C   0  0  0  0  0  0  0  0  0  0  0  0
   -3.4934   -0.6558   -0.2945 O   0  0  0  0  0  0  0  0  0  0  0  0
   -2.5562    0.1804    0.2541 C   0  0  2  0  0  0  0  0  0  0  0  0
   -2.1809    1.3422   -0.6837 C   0  0  0  0  0  0  0  0  0  0  0  0
   -1.1902    0.3093   -0.3006 C   0  0  1  0  0  0  0  0  0  0  0  0
   -0.1134    0.7706    0.5905 C   0  0  0  0  0  0  0  0  0  0  0  0
   -0.3361    1.6308    1.5149 O   0  0  0  0  0  0  0  0  0  0  0  0
    1.1956    0.2502    0.4194 N   0  0  0  0  0  0  0  0  0  0  0  0
    1.4197   -0.7088   -0.6201 C   0  0  0  0  0  0  0  0  0  0  0  0
    2.8129   -1.1501   -0.8314 C   0  0  0  0  0  0  0  0  0  0  0  0
    3.8275   -0.2817   -0.2800 N   0  0  0  0  0  0  0  0  0  0  0  0
    3.5725    0.6865    0.7119 C   0  0  0  0  0  0  0  0  0  0  0  0
    4.4728    1.4872    1.0597 O   0  0  0  0  0  0  0  0  0  0  0  0
    2.2362    0.7231    1.3136 C   0  0  0  0  0  0  0  0  0  0  0  0
   -3.7785   -1.5766    1.4899 H   0  0  0  0  0  0  0  0  0  0  0  0
   -5.1344   -1.7599    0.3573 H   0  0  0  0  0  0  0  0  0  0  0  0
   -4.8236   -0.1663    1.2319 H   0  0  0  0  0  0  0  0  0  0  0  0
   -2.6541    0.3933    1.3259 H   0  0  0  0  0  0  0  0  0  0  0  0
   -2.5396    1.3323   -1.7115 H   0  0  0  0  0  0  0  0  0  0  0  0
   -2.2424    2.3153   -0.1864 H   0  0  0  0  0  0  0  0  0  0  0  0
   -0.9116   -0.4221   -1.0563 H   0  0  0  0  0  0  0  0  0  0  0  0
    0.7363   -1.5903   -0.4800 H   0  0  0  0  0  0  0  0  0  0  0  0
    1.0502   -0.2335   -1.5762 H   0  0  0  0  0  0  0  0  0  0  0  0
    2.9813   -2.1577   -0.3542 H   0  0  0  0  0  0  0  0  0  0  0  0
    3.0536   -1.3033   -1.9047 H   0  0  0  0  0  0  0  0  0  0  0  0
    4.7942   -0.3885   -0.6439 H   0  0  0  0  0  0  0  0  0  0  0  0
    2.0062    1.8034    1.5311 H   0  0  0  0  0  0  0  0  0  0  0  0
    2.1790    0.2161    2.3011 H   0  0  0  0  0  0  0  0  0  0  0  0
  1  2  1  0
  2  3  1  0
  3  4  1  0
  4  5  1  0
  5  6  1  0
  6  7  2  0
  6  8  1  0
  8  9  1  0
  9 10  1  0
 10 11  1  0
 11 12  1  0
 12 13  2  0
 12 14  1  0
  5  3  1  0
 14  8  1  0
  1 15  1  0
  1 16  1  0
  1 17  1  0
  3 18  1  1
  4 19  1  0
  4 20  1  0
  5 21  1  6
  9 22  1  0
  9 23  1  0
 10 24  1  0
 10 25  1  0
 11 26  1  0
 14 27  1  0
 14 28  1  0
M  END
$$$$
