
     RDKit          3D

 29 29  0  0  0  0  0  0  0  0999 V2000
   -5.3104   -0.4042    0.1523 C   0  0  0  0  0  0  0  0  0  0  0  0
   -4.3266    0.4919    0.7058 N   0  0  0  0  0  0  0  0  0  0  0  0
   -2.9449    0.2010    0.5417 C   0  0  0  0  0  0  0  0  0  0  0  0
   -2.6044   -0.8196   -0.0753 O   0  0  0  0  0  0  0  0  0  0  0  0
   -1.9598    1.1306    1.1156 C   0  0  0  0  0  0  0  0  0  0  0  0
   -0.5989    0.7037    0.8687 N   0  0  0  0  0  0  0  0  0  0  0  0
   -0.0506    0.5289   -0.4216 C   0  0  0  0  0  0  0  0  0  0  0  0
   -0.7943    0.7597   -1.4010 O   0  0  0  0  0  0  0  0  0  0  0  0
    1.3398    0.0929   -0.6313 C   0  0  0  0  0  0  0  0  0  0  0  0
    1.9127   -0.0893   -1.8011 C   0  0  0  0  0  0  0  0  0  0  0  0
    3.3248   -0.5317   -1.6709 C   0  0  0  0  0  0  0  0  0  0  0  0
    3.6763   -0.1545   -0.2729 C   0  0  2  0  0  0  0  0  0  0  0  0
    4.6163   -1.1058    0.2553 N   0  0  0  0  0  0  0  0  0  0  0  0
    2.3336   -0.2127    0.4576 C   0  0  0  0  0  0  0  0  0  0  0  0
   -5.5965   -0.0819   -0.8705 H   0  0  0  0  0  0  0  0  0  0  0  0
   -6.2208   -0.3391    0.7809 H   0  0  0  0  0  0  0  0  0  0  0  0
   -4.9754   -1.4569    0.1809 H   0  0  0  0  0  0  0  0  0  0  0  0
   -4.6302    1.3573    1.2288 H   0  0  0  0  0  0  0  0  0  0  0  0
   -2.0390    2.1563    0.6479 H   0  0  0  0  0  0  0  0  0  0  0  0
   -2.1425    1.3032    2.1951 H   0  0  0  0  0  0  0  0  0  0  0  0
    0.0073    0.5156    1.6918 H   0  0  0  0  0  0  0  0  0  0  0  0
    1.3629    0.0811   -2.7436 H   0  0  0  0  0  0  0  0  0  0  0  0
    3.9747   -0.0884   -2.4456 H   0  0  0  0  0  0  0  0  0  0  0  0
    3.3050   -1.6469   -1.7260 H   0  0  0  0  0  0  0  0  0  0  0  0
    4.0535    0.8970   -0.2164 H   0  0  0  0  0  0  0  0  0  0  0  0
    4.3349   -1.4167    1.2128 H   0  0  0  0  0  0  0  0  0  0  0  0
    5.6020   -0.7343    0.2445 H   0  0  0  0  0  0  0  0  0  0  0  0
    2.1222   -1.2279    0.7894 H   0  0  0  0  0  0  0  0  0  0  0  0
    2.2280    0.5733    1.2071 H   0  0  0  0  0  0  0  0  0  0  0  0
  1  2  1  0
  2  3  1  0
  3  4  2  0
  3  5  1  0
  5  6  1  0
  6  7  1  0
  7  8  2  0
  7  9  1  0
  9 10  2  0
 10 11  1  0
 11 12  1  0
 12 13  1  0
 12 14  1  0
 14  9  1  0
  1 15  1  0
  1 16  1  0
  1 17  1  0
  2 18  1  0
  5 19  1  0
  5 20  1  0
  6 21  1  0
 10 22  1  0
 11 23  1  0
 11 24  1  0
 12 25  1  6
 13 26  1  0
 13 27  1  0
 14 28  1  0
 14 29  1  0
M  END
$$$$

     RDKit          3D

 29 29  0  0  0  0  0  0  0  0999 V2000
    5.2048   -0.1690    1.2923 C   0  0  0  0  0  0  0  0  0  0  0  0
    4.3692   -0.3556    0.1258 N   0  0  0  0  0  0  0  0  0  0  0  0
    2.9519   -0.4699    0.2463 C   0  0  0  0  0  0  0  0  0  0  0  0
    2.3770   -0.4140    1.3580 O   0  0  0  0  0  0  0  0  0  0  0  0
    2.2042   -0.6602   -1.0394 C   0  0  0  0  0  0  0  0  0  0  0  0
    0.7791   -0.7656   -0.8191 N   0  0  0  0  0  0  0  0  0  0  0  0
    0.0098    0.2575   -0.2167 C   0  0  0  0  0  0  0  0  0  0  0  0
    0.6231    1.2977    0.1337 O   0  0  0  0  0  0  0  0  0  0  0  0
   -1.4309    0.1297   -0.0034 C   0  0  0  0  0  0  0  0  0  0  0  0
   -2.2197   -0.8822   -0.3082 C   0  0  0  0  0  0  0  0  0  0  0  0
   -3.6274   -0.6364    0.0654 C   0  0  0  0  0  0  0  0  0  0  0  0
   -3.5181    0.4411    1.1073 C   0  0  2  0  0  0  0  0  0  0  0  0
   -4.6592    1.3199    1.0461 N   0  0  0  0  0  0  0  0  0  0  0  0
   -2.2869    1.1880    0.6372 C   0  0  0  0  0  0  0  0  0  0  0  0
    5.5178    0.8710    1.3923 H   0  0  0  0  0  0  0  0  0  0  0  0
    4.6840   -0.5042    2.2104 H   0  0  0  0  0  0  0  0  0  0  0  0
    6.1166   -0.7919    1.1517 H   0  0  0  0  0  0  0  0  0  0  0  0
    4.8626   -0.4005   -0.7963 H   0  0  0  0  0  0  0  0  0  0  0  0
    2.5658   -1.5335   -1.5808 H   0  0  0  0  0  0  0  0  0  0  0  0
    2.4691    0.2340   -1.6673 H   0  0  0  0  0  0  0  0  0  0  0  0
    0.2564   -1.6353   -1.1101 H   0  0  0  0  0  0  0  0  0  0  0  0
   -1.7917   -1.7768   -0.7884 H   0  0  0  0  0  0  0  0  0  0  0  0
   -4.0947   -1.5623    0.4531 H   0  0  0  0  0  0  0  0  0  0  0  0
   -4.1948   -0.3161   -0.8333 H   0  0  0  0  0  0  0  0  0  0  0  0
   -3.3590    0.0005    2.0976 H   0  0  0  0  0  0  0  0  0  0  0  0
   -4.3669    2.2919    1.2743 H   0  0  0  0  0  0  0  0  0  0  0  0
   -5.1360    1.2717    0.1209 H   0  0  0  0  0  0  0  0  0  0  0  0
   -1.7781    1.6186    1.5259 H   0  0  0  0  0  0  0  0  0  0  0  0
   -2.5282    1.9518   -0.1269 H   0  0  0  0  0  0  0  0  0  0  0  0
  1  2  1  0
  2  3  1  0
  3  4  2  0
  3  5  1  0
  5  6  1  0
  6  7  1  0
  7  8  2  0
  7  9  1  0
  9 10  2  0
 10 11  1  0
 11 12  1  0
 12 13  1  0
 12 14  1  0
 14  9  1  0
  1 15  1  0
  1 16  1  0
  1 17  1  0
  2 18  1  0
  5 19  1  0
  5 20  1  0
  6 21  1  0
 10 22  1  0
 11 23  1  0
 11 24  1  0
 12 25  1  1
 13 26  1  0
 13 27  1  0
 14 28  1  0
 14 29  1  0
M  END
$$$$

     RDKit          3D

 29 29  0  0  0  0  0  0  0  0999 V2000
    5.0022    1.1607    0.4134 C   0  0  0  0  0  0  0  0  0  0  0  0
    4.2929   -0.0698    0.1202 N   0  0  0  0  0  0  0  0  0  0  0  0
    2.8921   -0.0587   -0.1232 C   0  0  0  0  0  0  0  0  0  0  0  0
    2.3130    1.0563   -0.0713 O   0  0  0  0  0  0  0  0  0  0  0  0
    2.2009   -1.3157   -0.4168 C   0  0  0  0  0  0  0  0  0  0  0  0
    0.7893   -1.1621   -0.6426 N   0  0  0  0  0  0  0  0  0  0  0  0
   -0.0610   -0.6244    0.3649 C   0  0  0  0  0  0  0  0  0  0  0  0
    0.4868   -0.2965    1.4481 O   0  0  0  0  0  0  0  0  0  0  0  0
   -1.5091   -0.4614    0.1474 C   0  0  0  0  0  0  0  0  0  0  0  0
   -2.1304   -0.7810   -0.9468 C   0  0  0  0  0  0  0  0  0  0  0  0
   -3.5729   -0.4916   -0.8379 C   0  0  0  0  0  0  0  0  0  0  0  0
   -3.6517    0.4597    0.3408 C   0  0  2  0  0  0  0  0  0  0  0  0
   -3.4884    1.8006   -0.1481 N   0  0  0  0  0  0  0  0  0  0  0  0
   -2.4384    0.0821    1.1396 C   0  0  0  0  0  0  0  0  0  0  0  0
    5.9404    0.9229    0.9193 H   0  0  0  0  0  0  0  0  0  0  0  0
    5.1248    1.7038   -0.5341 H   0  0  0  0  0  0  0  0  0  0  0  0
    4.3248    1.7838    1.0671 H   0  0  0  0  0  0  0  0  0  0  0  0
    4.8429   -0.9782    0.0916 H   0  0  0  0  0  0  0  0  0  0  0  0
    2.6626   -1.7496   -1.3389 H   0  0  0  0  0  0  0  0  0  0  0  0
    2.4324   -2.0431    0.3992 H   0  0  0  0  0  0  0  0  0  0  0  0
    0.3283   -1.4323   -1.5392 H   0  0  0  0  0  0  0  0  0  0  0  0
   -1.6995   -1.2153   -1.8727 H   0  0  0  0  0  0  0  0  0  0  0  0
   -4.1891   -1.3968   -0.6650 H   0  0  0  0  0  0  0  0  0  0  0  0
   -3.8624    0.0433   -1.7812 H   0  0  0  0  0  0  0  0  0  0  0  0
   -4.5929    0.3461    0.9116 H   0  0  0  0  0  0  0  0  0  0  0  0
   -3.8502    2.5220    0.5154 H   0  0  0  0  0  0  0  0  0  0  0  0
   -3.9070    1.9382   -1.0981 H   0  0  0  0  0  0  0  0  0  0  0  0
   -1.9610    0.9563    1.6307 H   0  0  0  0  0  0  0  0  0  0  0  0
   -2.7193   -0.6992    1.9026 H   0  0  0  0  0  0  0  0  0  0  0  0
  1  2  1  0
  2  3  1  0
  3  4  2  0
  3  5  1  0
  5  6  1  0
  6  7  1  0
  7  8  2  0
  7  9  1  0
  9 10  2  0
 10 11  1  0
 11 12  1  0
 12 13  1  0
 12 14  1  0
 14  9  1  0
  1 15  1  0
  1 16  1  0
  1 17  1  0
  2 18  1  0
  5 19  1  0
  5 20  1  0
  6 21  1  0
 10 22  1  0
 11 23  1  0
 11 24  1  0
 12 25  1  1
 13 26  1  0
 13 27  1  0
 14 28  1  0
 14 29  1  0
M  END
$$$$

     RDKit          3D

 29 29  0  0  0  0  0  0  0  0999 V2000
    5.0660    0.7462    0.5076 C   0  0  0  0  0  0  0  0  0  0  0  0
    4.1830   -0.3772    0.7723 N   0  0  0  0  0  0  0  0  0  0  0  0
    2.8322   -0.3049    0.3211 C   0  0  0  0  0  0  0  0  0  0  0  0
    2.4364    0.7142   -0.2882 O   0  0  0  0  0  0  0  0  0  0  0  0
    1.9220   -1.4466    0.5861 C   0  0  0  0  0  0  0  0  0  0  0  0
    0.6311   -1.1300    0.0366 N   0  0  0  0  0  0  0  0  0  0  0  0
   -0.1364   -0.0167    0.4387 C   0  0  0  0  0  0  0  0  0  0  0  0
    0.3331    0.7335    1.3203 O   0  0  0  0  0  0  0  0  0  0  0  0
   -1.4334    0.2320   -0.1680 C   0  0  0  0  0  0  0  0  0  0  0  0
   -2.2508    1.2317    0.1136 C   0  0  0  0  0  0  0  0  0  0  0  0
   -3.4767    1.1438   -0.7142 C   0  0  0  0  0  0  0  0  0  0  0  0
   -3.5271   -0.3396   -0.9966 C   0  0  2  0  0  0  0  0  0  0  0  0
   -3.9326   -1.0141    0.2043 N   0  0  0  0  0  0  0  0  0  0  0  0
   -2.0531   -0.6318   -1.2316 C   0  0  0  0  0  0  0  0  0  0  0  0
    4.4917    1.6083    0.1424 H   0  0  0  0  0  0  0  0  0  0  0  0
    5.5508    1.0433    1.4505 H   0  0  0  0  0  0  0  0  0  0  0  0
    5.8198    0.4052   -0.2445 H   0  0  0  0  0  0  0  0  0  0  0  0
    4.5163   -1.2186    1.2774 H   0  0  0  0  0  0  0  0  0  0  0  0
    1.7807   -1.5566    1.6832 H   0  0  0  0  0  0  0  0  0  0  0  0
    2.3294   -2.3549    0.1212 H   0  0  0  0  0  0  0  0  0  0  0  0
    0.2391   -1.7746   -0.7139 H   0  0  0  0  0  0  0  0  0  0  0  0
   -2.0512    1.9971    0.8401 H   0  0  0  0  0  0  0  0  0  0  0  0
   -3.2785    1.6699   -1.6633 H   0  0  0  0  0  0  0  0  0  0  0  0
   -4.3778    1.5049   -0.1857 H   0  0  0  0  0  0  0  0  0  0  0  0
   -4.1437   -0.5876   -1.8753 H   0  0  0  0  0  0  0  0  0  0  0  0
   -3.1502   -0.9780    0.8982 H   0  0  0  0  0  0  0  0  0  0  0  0
   -4.7605   -0.5815    0.6481 H   0  0  0  0  0  0  0  0  0  0  0  0
   -1.8171   -1.6963   -1.0669 H   0  0  0  0  0  0  0  0  0  0  0  0
   -1.7427   -0.2547   -2.2135 H   0  0  0  0  0  0  0  0  0  0  0  0
  1  2  1  0
  2  3  1  0
  3  4  2  0
  3  5  1  0
  5  6  1  0
  6  7  1  0
  7  8  2  0
  7  9  1  0
  9 10  2  0
 10 11  1  0
 11 12  1  0
 12 13  1  0
 12 14  1  0
 14  9  1  0
  1 15  1  0
  1 16  1  0
  1 17  1  0
  2 18  1  0
  5 19  1  0
  5 20  1  0
  6 21  1  0
 10 22  1  0
 11 23  1  0
 11 24  1  0
 12 25  1  6
 13 26  1  0
 13 27  1  0
 14 28  1  0
 14 29  1  0
M  END
$$$$

     RDKit          3D

 29 29  0  0  0  0  0  0  0  0999 V2000
    5.1135   -0.6879    0.1676 C   0  0  0  0  0  0  0  0  0  0  0  0
    3.7187   -0.2670   -0.0428 N   0  0  0  0  0  0  0  0  0  0  0  0
    3.4497    0.9883   -0.6141 C   0  0  0  0  0  0  0  0  0  0  0  0
    4.4660    1.7025   -0.9223 O   0  0  0  0  0  0  0  0  0  0  0  0
    2.0991    1.4996   -0.8647 C   0  0  0  0  0  0  0  0  0  0  0  0
    1.0226    0.6216   -0.4833 N   0  0  0  0  0  0  0  0  0  0  0  0
   -0.3385    1.0594   -0.7009 C   0  0  0  0  0  0  0  0  0  0  0  0
   -0.4627    2.1981   -1.2174 O   0  0  0  0  0  0  0  0  0  0  0  0
   -1.4587    0.2191   -0.3371 C   0  0  0  0  0  0  0  0  0  0  0  0
   -1.4090   -0.9834    0.2071 C   0  0  0  0  0  0  0  0  0  0  0  0
   -2.7567   -1.5396    0.4392 C   0  0  0  0  0  0  0  0  0  0  0  0
   -3.7101   -0.4175    0.1775 C   0  0  2  0  0  0  0  0  0  0  0  0
   -4.8484   -0.8316   -0.6229 N   0  0  0  0  0  0  0  0  0  0  0  0
   -2.8778    0.6037   -0.5312 C   0  0  0  0  0  0  0  0  0  0  0  0
    5.7612   -0.2404   -0.6221 H   0  0  0  0  0  0  0  0  0  0  0  0
    5.4308   -0.2007    1.1194 H   0  0  0  0  0  0  0  0  0  0  0  0
    5.2027   -1.7793    0.1966 H   0  0  0  0  0  0  0  0  0  0  0  0
    2.9801   -0.9293    0.2459 H   0  0  0  0  0  0  0  0  0  0  0  0
    1.9863    2.4833   -0.3094 H   0  0  0  0  0  0  0  0  0  0  0  0
    1.9411    1.7900   -1.9324 H   0  0  0  0  0  0  0  0  0  0  0  0
    1.1503   -0.3031   -0.0635 H   0  0  0  0  0  0  0  0  0  0  0  0
   -0.5052   -1.5538    0.4779 H   0  0  0  0  0  0  0  0  0  0  0  0
   -2.9098   -1.8642    1.4972 H   0  0  0  0  0  0  0  0  0  0  0  0
   -2.9736   -2.4119   -0.2230 H   0  0  0  0  0  0  0  0  0  0  0  0
   -4.1199    0.0459    1.0985 H   0  0  0  0  0  0  0  0  0  0  0  0
   -5.3067    0.0140   -1.0306 H   0  0  0  0  0  0  0  0  0  0  0  0
   -4.5681   -1.5336   -1.3518 H   0  0  0  0  0  0  0  0  0  0  0  0
   -2.9868    1.6215   -0.0754 H   0  0  0  0  0  0  0  0  0  0  0  0
   -3.0902    0.6961   -1.6099 H   0  0  0  0  0  0  0  0  0  0  0  0
  1  2  1  0
  2  3  1  0
  3  4  2  0
  3  5  1  0
  5  6  1  0
  6  7  1  0
  7  8  2  0
  7  9  1  0
  9 10  2  0
 10 11  1  0
 11 12  1  0
 12 13  1  0
 12 14  1  0
 14  9  1  0
  1 15  1  0
  1 16  1  0
  1 17  1  0
  2 18  1  0
  5 19  1  0
  5 20  1  0
  6 21  1  0
 10 22  1  0
 11 23  1  0
 11 24  1  0
 12 25  1  1
 13 26  1  0
 13 27  1  0
 14 28  1  0
 14 29  1  0
M  END
$$$$

     RDKit          3D

 29 29  0  0  0  0  0  0  0  0999 V2000
    5.7857    0.0301    0.1662 C   0  0  0  0  0  0  0  0  0  0  0  0
    4.6140   -0.1346   -0.6677 N   0  0  0  0  0  0  0  0  0  0  0  0
    3.2840   -0.0992   -0.1550 C   0  0  0  0  0  0  0  0  0  0  0  0
    3.1600    0.0848    1.0780 O   0  0  0  0  0  0  0  0  0  0  0  0
    2.0945   -0.2688   -1.0173 C   0  0  0  0  0  0  0  0  0  0  0  0
    0.9157   -0.1798   -0.1853 N   0  0  0  0  0  0  0  0  0  0  0  0
   -0.3508   -0.3192   -0.8332 C   0  0  0  0  0  0  0  0  0  0  0  0
   -0.4227   -0.5106   -2.0733 O   0  0  0  0  0  0  0  0  0  0  0  0
   -1.5922   -0.2441   -0.0791 C   0  0  0  0  0  0  0  0  0  0  0  0
   -1.6882   -0.0470    1.2337 C   0  0  0  0  0  0  0  0  0  0  0  0
   -3.1100   -0.0288    1.6528 C   0  0  0  0  0  0  0  0  0  0  0  0
   -3.8114    0.3256    0.3587 C   0  0  2  0  0  0  0  0  0  0  0  0
   -5.1619   -0.2006    0.3502 N   0  0  0  0  0  0  0  0  0  0  0  0
   -2.9499   -0.3767   -0.6630 C   0  0  0  0  0  0  0  0  0  0  0  0
    5.6390    0.8959    0.8359 H   0  0  0  0  0  0  0  0  0  0  0  0
    6.6658    0.1181   -0.4906 H   0  0  0  0  0  0  0  0  0  0  0  0
    5.8508   -0.8924    0.8032 H   0  0  0  0  0  0  0  0  0  0  0  0
    4.6930   -0.2914   -1.7128 H   0  0  0  0  0  0  0  0  0  0  0  0
    2.1345   -1.2690   -1.5205 H   0  0  0  0  0  0  0  0  0  0  0  0
    2.0657    0.5448   -1.7893 H   0  0  0  0  0  0  0  0  0  0  0  0
    0.9165   -0.0248    0.8311 H   0  0  0  0  0  0  0  0  0  0  0  0
   -0.8456    0.0801    1.8902 H   0  0  0  0  0  0  0  0  0  0  0  0
   -3.4159   -1.0566    1.9527 H   0  0  0  0  0  0  0  0  0  0  0  0
   -3.3078    0.7145    2.4498 H   0  0  0  0  0  0  0  0  0  0  0  0
   -3.7782    1.4150    0.1641 H   0  0  0  0  0  0  0  0  0  0  0  0
   -5.8098    0.6157    0.3737 H   0  0  0  0  0  0  0  0  0  0  0  0
   -5.2807   -0.6809   -0.5772 H   0  0  0  0  0  0  0  0  0  0  0  0
   -3.0216    0.0977   -1.6643 H   0  0  0  0  0  0  0  0  0  0  0  0
   -3.2725   -1.4333   -0.7116 H   0  0  0  0  0  0  0  0  0  0  0  0
  1  2  1  0
  2  3  1  0
  3  4  2  0
  3  5  1  0
  5  6  1  0
  6  7  1  0
  7  8  2  0
  7  9  1  0
  9 10  2  0
 10 11  1  0
 11 12  1  0
 12 13  1  0
 12 14  1  0
 14  9  1  0
  1 15  1  0
  1 16  1  0
  1 17  1  0
  2 18  1  0
  5 19  1  0
  5 20  1  0
  6 21  1  0
 10 22  1  0
 11 23  1  0
 11 24  1  0
 12 25  1  6
 13 26  1  0
 13 27  1  0
 14 28  1  0
 14 29  1  0
M  END
$$$$

     RDKit          3D

 29 29  0  0  0  0  0  0  0  0999 V2000
   -5.5552   -0.5572   -0.9790 C   0  0  0  0  0  0  0  0  0  0  0  0
   -4.5881   -0.1376   -0.0001 N   0  0  0  0  0  0  0  0  0  0  0  0
   -3.1881   -0.1649   -0.2103 C   0  0  0  0  0  0  0  0  0  0  0  0
   -2.7511   -0.5767   -1.3098 O   0  0  0  0  0  0  0  0  0  0  0  0
   -2.2249    0.2749    0.8207 C   0  0  0  0  0  0  0  0  0  0  0  0
   -0.8580    0.1535    0.3724 N   0  0  0  0  0  0  0  0  0  0  0  0
    0.2463    0.5151    1.1889 C   0  0  0  0  0  0  0  0  0  0  0  0
   -0.0495    0.9545    2.3452 O   0  0  0  0  0  0  0  0  0  0  0  0
    1.6258    0.3953    0.7432 C   0  0  0  0  0  0  0  0  0  0  0  0
    2.6677    0.7249    1.4840 C   0  0  0  0  0  0  0  0  0  0  0  0
    3.9288    0.4718    0.7084 C   0  0  0  0  0  0  0  0  0  0  0  0
    3.4974   -0.5393   -0.3179 C   0  0  2  0  0  0  0  0  0  0  0  0
    4.3108   -0.3482   -1.5041 N   0  0  0  0  0  0  0  0  0  0  0  0
    2.0492   -0.1063   -0.5829 C   0  0  0  0  0  0  0  0  0  0  0  0
   -5.2356   -0.4092   -2.0109 H   0  0  0  0  0  0  0  0  0  0  0  0
   -5.7531   -1.6428   -0.8161 H   0  0  0  0  0  0  0  0  0  0  0  0
   -6.5193   -0.0313   -0.7478 H   0  0  0  0  0  0  0  0  0  0  0  0
   -4.8974    0.2216    0.9515 H   0  0  0  0  0  0  0  0  0  0  0  0
   -2.4035   -0.2593    1.7858 H   0  0  0  0  0  0  0  0  0  0  0  0
   -2.4064    1.3548    1.0279 H   0  0  0  0  0  0  0  0  0  0  0  0
   -0.6452   -0.2128   -0.5880 H   0  0  0  0  0  0  0  0  0  0  0  0
    2.7030    1.1209    2.4961 H   0  0  0  0  0  0  0  0  0  0  0  0
    4.7062    0.0194    1.3792 H   0  0  0  0  0  0  0  0  0  0  0  0
    4.3502    1.3856    0.2898 H   0  0  0  0  0  0  0  0  0  0  0  0
    3.5468   -1.5623    0.0686 H   0  0  0  0  0  0  0  0  0  0  0  0
    4.8422   -1.2343   -1.6769 H   0  0  0  0  0  0  0  0  0  0  0  0
    5.0289    0.3966   -1.3635 H   0  0  0  0  0  0  0  0  0  0  0  0
    1.4405   -0.9254   -0.9645 H   0  0  0  0  0  0  0  0  0  0  0  0
    2.1317    0.7188   -1.3407 H   0  0  0  0  0  0  0  0  0  0  0  0
  1  2  1  0
  2  3  1  0
  3  4  2  0
  3  5  1  0
  5  6  1  0
  6  7  1  0
  7  8  2  0
  7  9  1  0
  9 10  2  0
 10 11  1  0
 11 12  1  0
 12 13  1  0
 12 14  1  0
 14  9  1  0
  1 15  1  0
  1 16  1  0
  1 17  1  0
  2 18  1  0
  5 19  1  0
  5 20  1  0
  6 21  1  0
 10 22  1  0
 11 23  1  0
 11 24  1  0
 12 25  1  1
 13 26  1  0
 13 27  1  0
 14 28  1  0
 14 29  1  0
M  END
$$$$

     RDKit          3D

 29 29  0  0  0  0  0  0  0  0999 V2000
   -4.1253    0.8052    1.0536 C   0  0  0  0  0  0  0  0  0  0  0  0
   -2.9509    0.1418    0.4563 N   0  0  0  0  0  0  0  0  0  0  0  0
   -3.0534   -1.1107   -0.1816 C   0  0  0  0  0  0  0  0  0  0  0  0
   -4.2314   -1.6144   -0.2041 O   0  0  0  0  0  0  0  0  0  0  0  0
   -1.9650   -1.8560   -0.8000 C   0  0  0  0  0  0  0  0  0  0  0  0
   -0.6666   -1.2899   -0.7325 N   0  0  0  0  0  0  0  0  0  0  0  0
    0.0626   -1.0212    0.4446 C   0  0  0  0  0  0  0  0  0  0  0  0
   -0.4604   -1.3061    1.5645 O   0  0  0  0  0  0  0  0  0  0  0  0
    1.4078   -0.4207    0.3863 C   0  0  0  0  0  0  0  0  0  0  0  0
    2.1901   -0.1216    1.4187 C   0  0  0  0  0  0  0  0  0  0  0  0
    3.4704    0.4694    0.9484 C   0  0  0  0  0  0  0  0  0  0  0  0
    3.0372    1.0413   -0.4041 C   0  0  2  0  0  0  0  0  0  0  0  0
    2.2245    2.2131   -0.1471 N   0  0  0  0  0  0  0  0  0  0  0  0
    2.1034   -0.0524   -0.8744 C   0  0  0  0  0  0  0  0  0  0  0  0
   -5.0075    0.5061    0.4503 H   0  0  0  0  0  0  0  0  0  0  0  0
   -3.9863    1.8914    0.8795 H   0  0  0  0  0  0  0  0  0  0  0  0
   -4.2548    0.5423    2.1032 H   0  0  0  0  0  0  0  0  0  0  0  0
   -2.0171    0.6035    0.4917 H   0  0  0  0  0  0  0  0  0  0  0  0
   -2.1886   -2.1413   -1.8715 H   0  0  0  0  0  0  0  0  0  0  0  0
   -1.8864   -2.8707   -0.2977 H   0  0  0  0  0  0  0  0  0  0  0  0
   -0.1791   -1.0366   -1.6312 H   0  0  0  0  0  0  0  0  0  0  0  0
    1.9461   -0.2783    2.4459 H   0  0  0  0  0  0  0  0  0  0  0  0
    3.8716    1.2327    1.6133 H   0  0  0  0  0  0  0  0  0  0  0  0
    4.1669   -0.3855    0.7700 H   0  0  0  0  0  0  0  0  0  0  0  0
    3.8761    1.2256   -1.0704 H   0  0  0  0  0  0  0  0  0  0  0  0
    2.1539    2.4528    0.8605 H   0  0  0  0  0  0  0  0  0  0  0  0
    2.4370    3.0086   -0.7676 H   0  0  0  0  0  0  0  0  0  0  0  0
    1.3681    0.3168   -1.6169 H   0  0  0  0  0  0  0  0  0  0  0  0
    2.6572   -0.9453   -1.2341 H   0  0  0  0  0  0  0  0  0  0  0  0
  1  2  1  0
  2  3  1  0
  3  4  2  0
  3  5  1  0
  5  6  1  0
  6  7  1  0
  7  8  2  0
  7  9  1  0
  9 10  2  0
 10 11  1  0
 11 12  1  0
 12 13  1  0
 12 14  1  0
 14  9  1  0
  1 15  1  0
  1 16  1  0
  1 17  1  0
  2 18  1  0
  5 19  1  0
  5 20  1  0
  6 21  1  0
 10 22  1  0
 11 23  1  0
 11 24  1  0
 12 25  1  6
 13 26  1  0
 13 27  1  0
 14 28  1  0
 14 29  1  0
M  END
$$$$
