
     RDKit          3D

 25 25  0  0  0  0  0  0  0  0999 V2000
    3.2058    0.4424   -0.6470 C   0  0  0  0  0  0  0  0  0  0  0  0
    2.4937    0.0476    0.6264 C   0  0  0  0  0  0  0  0  0  0  0  0
    1.5256   -0.9956    0.2640 N   0  0  0  0  0  0  0  0  0  0  0  0
    1.7949   -2.2926    0.2666 N   0  0  0  0  0  0  0  0  0  0  0  0
    0.6898   -2.9080   -0.1115 N   0  0  0  0  0  0  0  0  0  0  0  0
   -0.2597   -2.0236   -0.3489 N   0  0  0  0  0  0  0  0  0  0  0  0
    0.2474   -0.8281   -0.1189 C   0  0  0  0  0  0  0  0  0  0  0  0
   -0.3518    0.5261   -0.2196 C   0  0  0  0  0  0  0  0  0  0  0  0
   -1.7741    0.5148   -0.6573 C   0  0  2  0  0  0  0  0  0  0  0  0
   -2.2029    1.8544   -0.7068 O   0  0  0  0  0  0  0  0  0  0  0  0
   -2.6971   -0.2400    0.2511 C   0  0  0  0  0  0  0  0  0  0  0  0
   -2.7287    0.2634    1.5938 N   0  0  0  0  0  0  0  0  0  0  0  0
    4.1672   -0.1253   -0.7282 H   0  0  0  0  0  0  0  0  0  0  0  0
    2.5915    0.1556   -1.5397 H   0  0  0  0  0  0  0  0  0  0  0  0
    3.4144    1.5214   -0.6166 H   0  0  0  0  0  0  0  0  0  0  0  0
    1.9833    0.9420    1.0268 H   0  0  0  0  0  0  0  0  0  0  0  0
    3.2262   -0.3367    1.3757 H   0  0  0  0  0  0  0  0  0  0  0  0
   -0.2523    1.0880    0.7289 H   0  0  0  0  0  0  0  0  0  0  0  0
    0.2351    1.0779   -0.9831 H   0  0  0  0  0  0  0  0  0  0  0  0
   -1.8661    0.1152   -1.6737 H   0  0  0  0  0  0  0  0  0  0  0  0
   -2.3262    2.2258    0.2132 H   0  0  0  0  0  0  0  0  0  0  0  0
   -2.4497   -1.3212    0.2587 H   0  0  0  0  0  0  0  0  0  0  0  0
   -3.7277   -0.1667   -0.1552 H   0  0  0  0  0  0  0  0  0  0  0  0
   -2.9890   -0.4258    2.3039 H   0  0  0  0  0  0  0  0  0  0  0  0
   -1.9498    0.8891    1.8433 H   0  0  0  0  0  0  0  0  0  0  0  0
  1  2  1  0
  2  3  1  0
  3  4  1  0
  4  5  2  0
  5  6  1  0
  6  7  2  0
  7  8  1  0
  8  9  1  0
  9 10  1  0
  9 11  1  0
 11 12  1  0
  7  3  1  0
  1 13  1  0
  1 14  1  0
  1 15  1  0
  2 16  1  0
  2 17  1  0
  8 18  1  0
  8 19  1  0
  9 20  1  6
 10 21  1  0
 11 22  1  0
 11 23  1  0
 12 24  1  0
 12 25  1  0
M  END
$$$$

     RDKit          3D

 25 25  0  0  0  0  0  0  0  0999 V2000
    3.0835    0.8652    0.6643 C   0  0  0  0  0  0  0  0  0  0  0  0
    2.4651    0.7238   -0.6998 C   0  0  0  0  0  0  0  0  0  0  0  0
    1.8710   -0.6010   -0.7901 N   0  0  0  0  0  0  0  0  0  0  0  0
    2.4868   -1.6916   -1.2187 N   0  0  0  0  0  0  0  0  0  0  0  0
    1.6061   -2.6876   -1.1475 N   0  0  0  0  0  0  0  0  0  0  0  0
    0.4773   -2.2203   -0.6866 N   0  0  0  0  0  0  0  0  0  0  0  0
    0.6083   -0.9139   -0.4516 C   0  0  0  0  0  0  0  0  0  0  0  0
   -0.3896    0.0340    0.0692 C   0  0  0  0  0  0  0  0  0  0  0  0
   -1.7011   -0.6773    0.3386 C   0  0  2  0  0  0  0  0  0  0  0  0
   -2.1468   -1.2161   -0.8435 O   0  0  0  0  0  0  0  0  0  0  0  0
   -2.7084    0.2981    0.9123 C   0  0  0  0  0  0  0  0  0  0  0  0
   -2.8955    1.3552   -0.0663 N   0  0  0  0  0  0  0  0  0  0  0  0
    3.2891   -0.1359    1.1322 H   0  0  0  0  0  0  0  0  0  0  0  0
    2.4499    1.4726    1.3450 H   0  0  0  0  0  0  0  0  0  0  0  0
    4.0907    1.3472    0.5480 H   0  0  0  0  0  0  0  0  0  0  0  0
    1.6813    1.5198   -0.8590 H   0  0  0  0  0  0  0  0  0  0  0  0
    3.2058    0.8749   -1.5088 H   0  0  0  0  0  0  0  0  0  0  0  0
   -0.0037    0.4907    1.0094 H   0  0  0  0  0  0  0  0  0  0  0  0
   -0.5271    0.8664   -0.6601 H   0  0  0  0  0  0  0  0  0  0  0  0
   -1.4808   -1.5063    1.0485 H   0  0  0  0  0  0  0  0  0  0  0  0
   -2.6880   -2.0298   -0.6848 H   0  0  0  0  0  0  0  0  0  0  0  0
   -2.3706    0.6750    1.8921 H   0  0  0  0  0  0  0  0  0  0  0  0
   -3.6736   -0.2242    1.0645 H   0  0  0  0  0  0  0  0  0  0  0  0
   -3.6081    1.1169   -0.7729 H   0  0  0  0  0  0  0  0  0  0  0  0
   -3.1215    2.2643    0.3654 H   0  0  0  0  0  0  0  0  0  0  0  0
  1  2  1  0
  2  3  1  0
  3  4  1  0
  4  5  2  0
  5  6  1  0
  6  7  2  0
  7  8  1  0
  8  9  1  0
  9 10  1  0
  9 11  1  0
 11 12  1  0
  7  3  1  0
  1 13  1  0
  1 14  1  0
  1 15  1  0
  2 16  1  0
  2 17  1  0
  8 18  1  0
  8 19  1  0
  9 20  1  1
 10 21  1  0
 11 22  1  0
 11 23  1  0
 12 24  1  0
 12 25  1  0
M  END
$$$$

     RDKit          3D

 25 25  0  0  0  0  0  0  0  0999 V2000
    3.3903   -0.5953   -0.1967 C   0  0  0  0  0  0  0  0  0  0  0  0
    2.3314   -0.3937    0.8731 C   0  0  0  0  0  0  0  0  0  0  0  0
    1.5826    0.8224    0.6592 N   0  0  0  0  0  0  0  0  0  0  0  0
    1.9465    1.9939    1.1764 N   0  0  0  0  0  0  0  0  0  0  0  0
    1.0844    2.9229    0.8197 N   0  0  0  0  0  0  0  0  0  0  0  0
    0.1840    2.3303    0.0807 N   0  0  0  0  0  0  0  0  0  0  0  0
    0.4581    1.0248   -0.0427 C   0  0  0  0  0  0  0  0  0  0  0  0
   -0.2996    0.0197   -0.7833 C   0  0  0  0  0  0  0  0  0  0  0  0
   -1.3565   -0.6694   -0.0046 C   0  0  2  0  0  0  0  0  0  0  0  0
   -1.9835   -1.5966   -0.8597 O   0  0  0  0  0  0  0  0  0  0  0  0
   -2.4344    0.2313    0.5219 C   0  0  0  0  0  0  0  0  0  0  0  0
   -3.4431   -0.5072    1.2568 N   0  0  0  0  0  0  0  0  0  0  0  0
    4.4072   -0.5838    0.2524 H   0  0  0  0  0  0  0  0  0  0  0  0
    3.2033   -1.5010   -0.7982 H   0  0  0  0  0  0  0  0  0  0  0  0
    3.3551    0.2697   -0.9055 H   0  0  0  0  0  0  0  0  0  0  0  0
    1.6584   -1.2831    0.8394 H   0  0  0  0  0  0  0  0  0  0  0  0
    2.7900   -0.3632    1.8693 H   0  0  0  0  0  0  0  0  0  0  0  0
   -0.7982    0.4917   -1.6796 H   0  0  0  0  0  0  0  0  0  0  0  0
    0.3791   -0.7809   -1.1949 H   0  0  0  0  0  0  0  0  0  0  0  0
   -0.9222   -1.2716    0.8174 H   0  0  0  0  0  0  0  0  0  0  0  0
   -2.6046   -1.1265   -1.4702 H   0  0  0  0  0  0  0  0  0  0  0  0
   -2.9403    0.8233   -0.2331 H   0  0  0  0  0  0  0  0  0  0  0  0
   -1.9589    0.9450    1.2395 H   0  0  0  0  0  0  0  0  0  0  0  0
   -4.2795    0.1201    1.3480 H   0  0  0  0  0  0  0  0  0  0  0  0
   -3.7496   -1.3229    0.7052 H   0  0  0  0  0  0  0  0  0  0  0  0
  1  2  1  0
  2  3  1  0
  3  4  1  0
  4  5  2  0
  5  6  1  0
  6  7  2  0
  7  8  1  0
  8  9  1  0
  9 10  1  0
  9 11  1  0
 11 12  1  0
  7  3  1  0
  1 13  1  0
  1 14  1  0
  1 15  1  0
  2 16  1  0
  2 17  1  0
  8 18  1  0
  8 19  1  0
  9 20  1  1
 10 21  1  0
 11 22  1  0
 11 23  1  0
 12 24  1  0
 12 25  1  0
M  END
$$$$

     RDKit          3D

 25 25  0  0  0  0  0  0  0  0999 V2000
   -2.2489    1.8113    1.3438 C   0  0  0  0  0  0  0  0  0  0  0  0
   -2.2136    0.7461    0.2611 C   0  0  0  0  0  0  0  0  0  0  0  0
   -1.3985    1.1340   -0.8493 N   0  0  0  0  0  0  0  0  0  0  0  0
   -1.8011    1.8119   -1.9030 N   0  0  0  0  0  0  0  0  0  0  0  0
   -0.7898    2.0151   -2.7269 N   0  0  0  0  0  0  0  0  0  0  0  0
    0.2697    1.4572   -2.1874 N   0  0  0  0  0  0  0  0  0  0  0  0
   -0.1032    0.9104   -1.0254 C   0  0  0  0  0  0  0  0  0  0  0  0
    0.7702    0.1590   -0.0897 C   0  0  0  0  0  0  0  0  0  0  0  0
    0.8900   -1.3045   -0.4155 C   0  0  2  0  0  0  0  0  0  0  0  0
   -0.2937   -1.9964   -0.4043 O   0  0  0  0  0  0  0  0  0  0  0  0
    1.8920   -1.8825    0.5936 C   0  0  0  0  0  0  0  0  0  0  0  0
    3.0905   -1.0736    0.4879 N   0  0  0  0  0  0  0  0  0  0  0  0
   -1.1985    2.1068    1.5432 H   0  0  0  0  0  0  0  0  0  0  0  0
   -2.6521    1.3554    2.2476 H   0  0  0  0  0  0  0  0  0  0  0  0
   -2.7967    2.7150    1.0103 H   0  0  0  0  0  0  0  0  0  0  0  0
   -1.9000   -0.1814    0.7755 H   0  0  0  0  0  0  0  0  0  0  0  0
   -3.2384    0.5310   -0.1254 H   0  0  0  0  0  0  0  0  0  0  0  0
    1.7753    0.6045   -0.1337 H   0  0  0  0  0  0  0  0  0  0  0  0
    0.4267    0.2522    0.9612 H   0  0  0  0  0  0  0  0  0  0  0  0
    1.3193   -1.4347   -1.4525 H   0  0  0  0  0  0  0  0  0  0  0  0
   -0.6346   -2.2478   -1.2997 H   0  0  0  0  0  0  0  0  0  0  0  0
    1.4678   -1.9244    1.5970 H   0  0  0  0  0  0  0  0  0  0  0  0
    2.1435   -2.9417    0.3033 H   0  0  0  0  0  0  0  0  0  0  0  0
    3.8752   -1.5798    0.9769 H   0  0  0  0  0  0  0  0  0  0  0  0
    3.3490   -1.0433   -0.5208 H   0  0  0  0  0  0  0  0  0  0  0  0
  1  2  1  0
  2  3  1  0
  3  4  1  0
  4  5  2  0
  5  6  1  0
  6  7  2  0
  7  8  1  0
  8  9  1  0
  9 10  1  0
  9 11  1  0
 11 12  1  0
  7  3  1  0
  1 13  1  0
  1 14  1  0
  1 15  1  0
  2 16  1  0
  2 17  1  0
  8 18  1  0
  8 19  1  0
  9 20  1  6
 10 21  1  0
 11 22  1  0
 11 23  1  0
 12 24  1  0
 12 25  1  0
M  END
$$$$

     RDKit          3D

 25 25  0  0  0  0  0  0  0  0999 V2000
    2.7396   -1.3891    0.0127 C   0  0  0  0  0  0  0  0  0  0  0  0
    1.9261   -0.6166   -1.0213 C   0  0  0  0  0  0  0  0  0  0  0  0
    1.7470    0.7327   -0.5182 N   0  0  0  0  0  0  0  0  0  0  0  0
    2.5604    1.7568   -0.7383 N   0  0  0  0  0  0  0  0  0  0  0  0
    2.1201    2.8322   -0.1488 N   0  0  0  0  0  0  0  0  0  0  0  0
    1.0006    2.4895    0.4622 N   0  0  0  0  0  0  0  0  0  0  0  0
    0.7474    1.1877    0.2470 C   0  0  0  0  0  0  0  0  0  0  0  0
   -0.4199    0.3825    0.7547 C   0  0  0  0  0  0  0  0  0  0  0  0
   -1.4983    0.5133   -0.3131 C   0  0  2  0  0  0  0  0  0  0  0  0
   -1.7733    1.8954   -0.4024 O   0  0  0  0  0  0  0  0  0  0  0  0
   -2.7430   -0.2523    0.0639 C   0  0  0  0  0  0  0  0  0  0  0  0
   -2.4290   -1.6434    0.1450 N   0  0  0  0  0  0  0  0  0  0  0  0
    3.1376   -2.3288   -0.3944 H   0  0  0  0  0  0  0  0  0  0  0  0
    3.5695   -0.7096    0.3325 H   0  0  0  0  0  0  0  0  0  0  0  0
    2.0956   -1.5531    0.8952 H   0  0  0  0  0  0  0  0  0  0  0  0
    0.9487   -1.1226   -1.1505 H   0  0  0  0  0  0  0  0  0  0  0  0
    2.4841   -0.6319   -1.9585 H   0  0  0  0  0  0  0  0  0  0  0  0
   -0.8103    0.8578    1.6887 H   0  0  0  0  0  0  0  0  0  0  0  0
   -0.1607   -0.6653    0.9172 H   0  0  0  0  0  0  0  0  0  0  0  0
   -1.1005    0.1639   -1.2850 H   0  0  0  0  0  0  0  0  0  0  0  0
   -2.3775    2.2000    0.2979 H   0  0  0  0  0  0  0  0  0  0  0  0
   -3.4775   -0.0893   -0.7495 H   0  0  0  0  0  0  0  0  0  0  0  0
   -3.1581    0.1797    0.9891 H   0  0  0  0  0  0  0  0  0  0  0  0
   -1.8895   -1.9191    0.9724 H   0  0  0  0  0  0  0  0  0  0  0  0
   -3.2391   -2.2705   -0.0652 H   0  0  0  0  0  0  0  0  0  0  0  0
  1  2  1  0
  2  3  1  0
  3  4  1  0
  4  5  2  0
  5  6  1  0
  6  7  2  0
  7  8  1  0
  8  9  1  0
  9 10  1  0
  9 11  1  0
 11 12  1  0
  7  3  1  0
  1 13  1  0
  1 14  1  0
  1 15  1  0
  2 16  1  0
  2 17  1  0
  8 18  1  0
  8 19  1  0
  9 20  1  6
 10 21  1  0
 11 22  1  0
 11 23  1  0
 12 24  1  0
 12 25  1  0
M  END
$$$$

     RDKit          3D

 25 25  0  0  0  0  0  0  0  0999 V2000
   -2.7110    1.6632    0.8333 C   0  0  0  0  0  0  0  0  0  0  0  0
   -2.3585    0.9865   -0.4670 C   0  0  0  0  0  0  0  0  0  0  0  0
   -1.9862   -0.4033   -0.2783 N   0  0  0  0  0  0  0  0  0  0  0  0
   -2.8318   -1.4230   -0.3078 N   0  0  0  0  0  0  0  0  0  0  0  0
   -2.1692   -2.5535   -0.1001 N   0  0  0  0  0  0  0  0  0  0  0  0
   -0.8844   -2.2633    0.0651 N   0  0  0  0  0  0  0  0  0  0  0  0
   -0.7712   -0.9302   -0.0453 C   0  0  0  0  0  0  0  0  0  0  0  0
    0.4511   -0.0845    0.0574 C   0  0  0  0  0  0  0  0  0  0  0  0
    1.6804   -0.9230    0.3223 C   0  0  2  0  0  0  0  0  0  0  0  0
    1.5007   -1.6015    1.5134 O   0  0  0  0  0  0  0  0  0  0  0  0
    2.8455    0.0662    0.4580 C   0  0  0  0  0  0  0  0  0  0  0  0
    3.0517    0.7818   -0.7639 N   0  0  0  0  0  0  0  0  0  0  0  0
   -3.6825    1.3208    1.2406 H   0  0  0  0  0  0  0  0  0  0  0  0
   -2.6842    2.7543    0.6509 H   0  0  0  0  0  0  0  0  0  0  0  0
   -1.8886    1.4522    1.5517 H   0  0  0  0  0  0  0  0  0  0  0  0
   -3.1576    1.1013   -1.2244 H   0  0  0  0  0  0  0  0  0  0  0  0
   -1.4676    1.5220   -0.8820 H   0  0  0  0  0  0  0  0  0  0  0  0
    0.2670    0.6365    0.8739 H   0  0  0  0  0  0  0  0  0  0  0  0
    0.5313    0.4750   -0.8824 H   0  0  0  0  0  0  0  0  0  0  0  0
    1.8596   -1.5757   -0.5431 H   0  0  0  0  0  0  0  0  0  0  0  0
    1.5071   -2.5739    1.3245 H   0  0  0  0  0  0  0  0  0  0  0  0
    3.7436   -0.5113    0.7215 H   0  0  0  0  0  0  0  0  0  0  0  0
    2.6175    0.7843    1.2762 H   0  0  0  0  0  0  0  0  0  0  0  0
    2.4584    0.4819   -1.5512 H   0  0  0  0  0  0  0  0  0  0  0  0
    4.0789    0.8170   -0.9968 H   0  0  0  0  0  0  0  0  0  0  0  0
  1  2  1  0
  2  3  1  0
  3  4  1  0
  4  5  2  0
  5  6  1  0
  6  7  2  0
  7  8  1  0
  8  9  1  0
  9 10  1  0
  9 11  1  0
 11 12  1  0
  7  3  1  0
  1 13  1  0
  1 14  1  0
  1 15  1  0
  2 16  1  0
  2 17  1  0
  8 18  1  0
  8 19  1  0
  9 20  1  6
 10 21  1  0
 11 22  1  0
 11 23  1  0
 12 24  1  0
 12 25  1  0
M  END
$$$$

     RDKit          3D

 25 25  0  0  0  0  0  0  0  0999 V2000
    3.0885    0.4665    0.4863 C   0  0  0  0  0  0  0  0  0  0  0  0
    1.8235    1.0468   -0.1669 C   0  0  0  0  0  0  0  0  0  0  0  0
    1.3297    0.0874   -1.1416 N   0  0  0  0  0  0  0  0  0  0  0  0
    1.7782    0.0945   -2.4124 N   0  0  0  0  0  0  0  0  0  0  0  0
    1.1642   -0.9013   -3.0035 N   0  0  0  0  0  0  0  0  0  0  0  0
    0.3597   -1.5266   -2.1734 N   0  0  0  0  0  0  0  0  0  0  0  0
    0.4561   -0.8945   -0.9593 C   0  0  0  0  0  0  0  0  0  0  0  0
   -0.3137   -1.2661    0.2513 C   0  0  0  0  0  0  0  0  0  0  0  0
   -1.6789   -0.6456    0.2330 C   0  0  2  0  0  0  0  0  0  0  0  0
   -2.3782   -1.0948   -0.9075 O   0  0  0  0  0  0  0  0  0  0  0  0
   -1.6714    0.8587    0.1889 C   0  0  0  0  0  0  0  0  0  0  0  0
   -3.0662    1.3289    0.1937 N   0  0  0  0  0  0  0  0  0  0  0  0
    3.9361    1.1260    0.2112 H   0  0  0  0  0  0  0  0  0  0  0  0
    2.9566    0.4435    1.5864 H   0  0  0  0  0  0  0  0  0  0  0  0
    3.2461   -0.5805    0.1277 H   0  0  0  0  0  0  0  0  0  0  0  0
    2.0600    2.0249   -0.6570 H   0  0  0  0  0  0  0  0  0  0  0  0
    1.0975    1.2756    0.6302 H   0  0  0  0  0  0  0  0  0  0  0  0
   -0.4573   -2.3678    0.2506 H   0  0  0  0  0  0  0  0  0  0  0  0
    0.2484   -0.9271    1.1445 H   0  0  0  0  0  0  0  0  0  0  0  0
   -2.2064   -1.0185    1.1505 H   0  0  0  0  0  0  0  0  0  0  0  0
   -2.2992   -2.0809   -0.9586 H   0  0  0  0  0  0  0  0  0  0  0  0
   -1.2248    1.2484    1.1275 H   0  0  0  0  0  0  0  0  0  0  0  0
   -1.2003    1.2343   -0.7330 H   0  0  0  0  0  0  0  0  0  0  0  0
   -3.4071    1.3106    1.1782 H   0  0  0  0  0  0  0  0  0  0  0  0
   -3.6412    0.7575   -0.4604 H   0  0  0  0  0  0  0  0  0  0  0  0
  1  2  1  0
  2  3  1  0
  3  4  1  0
  4  5  2  0
  5  6  1  0
  6  7  2  0
  7  8  1  0
  8  9  1  0
  9 10  1  0
  9 11  1  0
 11 12  1  0
  7  3  1  0
  1 13  1  0
  1 14  1  0
  1 15  1  0
  2 16  1  0
  2 17  1  0
  8 18  1  0
  8 19  1  0
  9 20  1  1
 10 21  1  0
 11 22  1  0
 11 23  1  0
 12 24  1  0
 12 25  1  0
M  END
$$$$

     RDKit          3D

 25 25  0  0  0  0  0  0  0  0999 V2000
    3.2414    0.7778   -0.7541 C   0  0  0  0  0  0  0  0  0  0  0  0
    2.8179   -0.3694    0.1025 C   0  0  0  0  0  0  0  0  0  0  0  0
    1.6474   -1.0505   -0.3547 N   0  0  0  0  0  0  0  0  0  0  0  0
    1.6413   -2.0759   -1.1824 N   0  0  0  0  0  0  0  0  0  0  0  0
    0.4268   -2.4852   -1.4166 N   0  0  0  0  0  0  0  0  0  0  0  0
   -0.3821   -1.7076   -0.7243 N   0  0  0  0  0  0  0  0  0  0  0  0
    0.3652   -0.8106   -0.0591 C   0  0  0  0  0  0  0  0  0  0  0  0
   -0.1431    0.2341    0.8267 C   0  0  0  0  0  0  0  0  0  0  0  0
   -1.6461    0.2367    0.9416 C   0  0  2  0  0  0  0  0  0  0  0  0
   -2.1201   -0.9675    1.4398 O   0  0  0  0  0  0  0  0  0  0  0  0
   -2.2995    0.6108   -0.3778 C   0  0  0  0  0  0  0  0  0  0  0  0
   -3.7366    0.7433   -0.2202 N   0  0  0  0  0  0  0  0  0  0  0  0
    4.3306    0.7355   -1.0402 H   0  0  0  0  0  0  0  0  0  0  0  0
    3.1580    1.7436   -0.1774 H   0  0  0  0  0  0  0  0  0  0  0  0
    2.6967    0.8358   -1.7220 H   0  0  0  0  0  0  0  0  0  0  0  0
    3.6899   -1.0871    0.1386 H   0  0  0  0  0  0  0  0  0  0  0  0
    2.6712   -0.0682    1.1701 H   0  0  0  0  0  0  0  0  0  0  0  0
    0.2595    0.0817    1.8462 H   0  0  0  0  0  0  0  0  0  0  0  0
    0.1740    1.2676    0.5295 H   0  0  0  0  0  0  0  0  0  0  0  0
   -1.9948    1.0186    1.6706 H   0  0  0  0  0  0  0  0  0  0  0  0
   -2.7901   -1.3104    0.7904 H   0  0  0  0  0  0  0  0  0  0  0  0
   -2.0956   -0.1247   -1.1597 H   0  0  0  0  0  0  0  0  0  0  0  0
   -1.9063    1.5803   -0.7247 H   0  0  0  0  0  0  0  0  0  0  0  0
   -4.0289    1.7408   -0.3011 H   0  0  0  0  0  0  0  0  0  0  0  0
   -3.9767    0.4505    0.7584 H   0  0  0  0  0  0  0  0  0  0  0  0
  1  2  1  0
  2  3  1  0
  3  4  1  0
  4  5  2  0
  5  6  1  0
  6  7  2  0
  7  8  1  0
  8  9  1  0
  9 10  1  0
  9 11  1  0
 11 12  1  0
  7  3  1  0
  1 13  1  0
  1 14  1  0
  1 15  1  0
  2 16  1  0
  2 17  1  0
  8 18  1  0
  8 19  1  0
  9 20  1  1
 10 21  1  0
 11 22  1  0
 11 23  1  0
 12 24  1  0
 12 25  1  0
M  END
$$$$
