
     RDKit          3D

 27 26  0  0  0  0  0  0  0  0999 V2000
    4.3039    0.5002   -0.0548 C   0  0  0  0  0  0  0  0  0  0  0  0
    3.5360   -0.7945    0.0890 C   0  0  0  0  0  0  0  0  0  0  0  0
    2.1793   -0.6050    0.3469 O   0  0  0  0  0  0  0  0  0  0  0  0
    1.2827    0.0510   -0.4494 C   0  0  0  0  0  0  0  0  0  0  0  0
    1.6984    0.5413   -1.5272 O   0  0  0  0  0  0  0  0  0  0  0  0
   -0.1264    0.1506   -0.0044 C   0  0  2  0  0  0  0  0  0  0  0  0
   -0.2880   -0.5094    1.2701 N   0  0  0  0  0  0  0  0  0  0  0  0
   -1.0946   -0.4060   -1.0120 C   0  0  0  0  0  0  0  0  0  0  0  0
   -2.5228   -0.3136   -0.5789 C   0  0  1  0  0  0  0  0  0  0  0  0
   -2.7711   -1.0068    0.6039 O   0  0  0  0  0  0  0  0  0  0  0  0
   -3.0031    1.0991   -0.3779 C   0  0  0  0  0  0  0  0  0  0  0  0
   -4.3721    1.0293   -0.0962 O   0  0  0  0  0  0  0  0  0  0  0  0
    4.7123    0.8380    0.9377 H   0  0  0  0  0  0  0  0  0  0  0  0
    3.7087    1.3114   -0.4750 H   0  0  0  0  0  0  0  0  0  0  0  0
    5.1971    0.2926   -0.6817 H   0  0  0  0  0  0  0  0  0  0  0  0
    3.9746   -1.3075    0.9953 H   0  0  0  0  0  0  0  0  0  0  0  0
    3.7380   -1.5022   -0.7508 H   0  0  0  0  0  0  0  0  0  0  0  0
   -0.3499    1.2305    0.1110 H   0  0  0  0  0  0  0  0  0  0  0  0
   -1.0223   -0.0208    1.8326 H   0  0  0  0  0  0  0  0  0  0  0  0
   -0.5180   -1.5196    1.1202 H   0  0  0  0  0  0  0  0  0  0  0  0
   -0.8568   -1.4824   -1.1431 H   0  0  0  0  0  0  0  0  0  0  0  0
   -0.9476    0.0668   -1.9985 H   0  0  0  0  0  0  0  0  0  0  0  0
   -3.1531   -0.7591   -1.3753 H   0  0  0  0  0  0  0  0  0  0  0  0
   -3.0089   -1.9463    0.3483 H   0  0  0  0  0  0  0  0  0  0  0  0
   -2.5417    1.5786    0.5105 H   0  0  0  0  0  0  0  0  0  0  0  0
   -2.8957    1.6934   -1.2954 H   0  0  0  0  0  0  0  0  0  0  0  0
   -4.8588    1.7902   -0.4915 H   0  0  0  0  0  0  0  0  0  0  0  0
  1  2  1  0
  2  3  1  0
  3  4  1  0
  4  5  2  0
  4  6  1  0
  6  7  1  0
  6  8  1  0
  8  9  1  0
  9 10  1  0
  9 11  1  0
 11 12  1  0
  1 13  1  0
  1 14  1  0
  1 15  1  0
  2 16  1  0
  2 17  1  0
  6 18  1  1
  7 19  1  0
  7 20  1  0
  8 21  1  0
  8 22  1  0
  9 23  1  6
 10 24  1  0
 11 25  1  0
 11 26  1  0
 12 27  1  0
M  END
$$$$

     RDKit          3D

 27 26  0  0  0  0  0  0  0  0999 V2000
   -3.8172   -0.4561    0.2496 C   0  0  0  0  0  0  0  0  0  0  0  0
   -2.6195   -1.2857    0.6029 C   0  0  0  0  0  0  0  0  0  0  0  0
   -1.5345   -0.3966    0.8394 O   0  0  0  0  0  0  0  0  0  0  0  0
   -1.1029    0.4586   -0.1802 C   0  0  0  0  0  0  0  0  0  0  0  0
   -1.6783    0.4289   -1.2869 O   0  0  0  0  0  0  0  0  0  0  0  0
    0.0316    1.3815    0.0824 C   0  0  2  0  0  0  0  0  0  0  0  0
    0.2829    2.1423   -1.0955 N   0  0  0  0  0  0  0  0  0  0  0  0
    1.2084    0.6005    0.5827 C   0  0  0  0  0  0  0  0  0  0  0  0
    1.6952   -0.4421   -0.3844 C   0  0  1  0  0  0  0  0  0  0  0  0
    2.1010    0.0504   -1.5948 O   0  0  0  0  0  0  0  0  0  0  0  0
    2.9210   -1.0973    0.2670 C   0  0  0  0  0  0  0  0  0  0  0  0
    3.9444   -0.1751    0.4503 O   0  0  0  0  0  0  0  0  0  0  0  0
   -3.7112    0.5458    0.7322 H   0  0  0  0  0  0  0  0  0  0  0  0
   -4.7460   -0.9647    0.5785 H   0  0  0  0  0  0  0  0  0  0  0  0
   -3.8434   -0.3366   -0.8510 H   0  0  0  0  0  0  0  0  0  0  0  0
   -2.3317   -1.9864   -0.2134 H   0  0  0  0  0  0  0  0  0  0  0  0
   -2.7911   -1.9003    1.4988 H   0  0  0  0  0  0  0  0  0  0  0  0
   -0.2621    2.0876    0.8907 H   0  0  0  0  0  0  0  0  0  0  0  0
    0.1728    1.5926   -1.9933 H   0  0  0  0  0  0  0  0  0  0  0  0
   -0.4112    2.9222   -1.1765 H   0  0  0  0  0  0  0  0  0  0  0  0
    0.8964    0.0744    1.5088 H   0  0  0  0  0  0  0  0  0  0  0  0
    2.0308    1.2817    0.8762 H   0  0  0  0  0  0  0  0  0  0  0  0
    0.9609   -1.2630   -0.5124 H   0  0  0  0  0  0  0  0  0  0  0  0
    2.8615   -0.4491   -2.0067 H   0  0  0  0  0  0  0  0  0  0  0  0
    2.5744   -1.4003    1.2920 H   0  0  0  0  0  0  0  0  0  0  0  0
    3.2308   -1.9810   -0.3020 H   0  0  0  0  0  0  0  0  0  0  0  0
    3.9368    0.5676   -0.1770 H   0  0  0  0  0  0  0  0  0  0  0  0
  1  2  1  0
  2  3  1  0
  3  4  1  0
  4  5  2  0
  4  6  1  0
  6  7  1  0
  6  8  1  0
  8  9  1  0
  9 10  1  0
  9 11  1  0
 11 12  1  0
  1 13  1  0
  1 14  1  0
  1 15  1  0
  2 16  1  0
  2 17  1  0
  6 18  1  1
  7 19  1  0
  7 20  1  0
  8 21  1  0
  8 22  1  0
  9 23  1  6
 10 24  1  0
 11 25  1  0
 11 26  1  0
 12 27  1  0
M  END
$$$$

     RDKit          3D

 27 26  0  0  0  0  0  0  0  0999 V2000
    3.8257   -1.2445   -0.4426 C   0  0  0  0  0  0  0  0  0  0  0  0
    3.2844    0.1588   -0.1519 C   0  0  0  0  0  0  0  0  0  0  0  0
    1.8719    0.0663   -0.1536 O   0  0  0  0  0  0  0  0  0  0  0  0
    1.0459    1.1513    0.0760 C   0  0  0  0  0  0  0  0  0  0  0  0
    1.5311    2.2806    0.2988 O   0  0  0  0  0  0  0  0  0  0  0  0
   -0.4377    0.9107    0.0453 C   0  0  2  0  0  0  0  0  0  0  0  0
   -1.1042    2.1670    0.3079 N   0  0  0  0  0  0  0  0  0  0  0  0
   -0.7330   -0.0988    1.1084 C   0  0  0  0  0  0  0  0  0  0  0  0
   -2.1642   -0.4828    1.2505 C   0  0  1  0  0  0  0  0  0  0  0  0
   -2.9677    0.6203    1.5624 O   0  0  0  0  0  0  0  0  0  0  0  0
   -2.6821   -1.2516    0.0766 C   0  0  0  0  0  0  0  0  0  0  0  0
   -2.7747   -0.5290   -1.0924 O   0  0  0  0  0  0  0  0  0  0  0  0
    4.9321   -1.1620   -0.6476 H   0  0  0  0  0  0  0  0  0  0  0  0
    3.6541   -1.9104    0.4136 H   0  0  0  0  0  0  0  0  0  0  0  0
    3.3003   -1.6504   -1.3263 H   0  0  0  0  0  0  0  0  0  0  0  0
    3.6848    0.8986   -0.8410 H   0  0  0  0  0  0  0  0  0  0  0  0
    3.6446    0.4431    0.8751 H   0  0  0  0  0  0  0  0  0  0  0  0
   -0.7268    0.5620   -0.9670 H   0  0  0  0  0  0  0  0  0  0  0  0
   -0.4530    2.9742    0.1098 H   0  0  0  0  0  0  0  0  0  0  0  0
   -1.9706    2.2837   -0.2503 H   0  0  0  0  0  0  0  0  0  0  0  0
   -0.3573    0.2907    2.0887 H   0  0  0  0  0  0  0  0  0  0  0  0
   -0.1238   -1.0090    0.9109 H   0  0  0  0  0  0  0  0  0  0  0  0
   -2.2266   -1.1574    2.1403 H   0  0  0  0  0  0  0  0  0  0  0  0
   -3.8411    0.4792    1.1217 H   0  0  0  0  0  0  0  0  0  0  0  0
   -3.6859   -1.6617    0.3750 H   0  0  0  0  0  0  0  0  0  0  0  0
   -2.0014   -2.1069   -0.0911 H   0  0  0  0  0  0  0  0  0  0  0  0
   -2.5249   -1.0220   -1.9024 H   0  0  0  0  0  0  0  0  0  0  0  0
  1  2  1  0
  2  3  1  0
  3  4  1  0
  4  5  2  0
  4  6  1  0
  6  7  1  0
  6  8  1  0
  8  9  1  0
  9 10  1  0
  9 11  1  0
 11 12  1  0
  1 13  1  0
  1 14  1  0
  1 15  1  0
  2 16  1  0
  2 17  1  0
  6 18  1  6
  7 19  1  0
  7 20  1  0
  8 21  1  0
  8 22  1  0
  9 23  1  1
 10 24  1  0
 11 25  1  0
 11 26  1  0
 12 27  1  0
M  END
$$$$

     RDKit          3D

 27 26  0  0  0  0  0  0  0  0999 V2000
    4.3113   -0.6142    0.5482 C   0  0  0  0  0  0  0  0  0  0  0  0
    3.2127   -0.6760   -0.4679 C   0  0  0  0  0  0  0  0  0  0  0  0
    2.0596    0.0165   -0.0737 O   0  0  0  0  0  0  0  0  0  0  0  0
    0.9739    0.0420   -0.9110 C   0  0  0  0  0  0  0  0  0  0  0  0
    0.9933   -0.5503   -2.0380 O   0  0  0  0  0  0  0  0  0  0  0  0
   -0.3123    0.7525   -0.5907 C   0  0  2  0  0  0  0  0  0  0  0  0
   -0.0987    1.3412    0.7201 N   0  0  0  0  0  0  0  0  0  0  0  0
   -1.3708   -0.3023   -0.4897 C   0  0  0  0  0  0  0  0  0  0  0  0
   -2.7498    0.1836   -0.1913 C   0  0  1  0  0  0  0  0  0  0  0  0
   -3.6023   -0.9554   -0.1403 O   0  0  0  0  0  0  0  0  0  0  0  0
   -2.8362    0.7835    1.1907 C   0  0  0  0  0  0  0  0  0  0  0  0
   -2.3681   -0.1471    2.1167 O   0  0  0  0  0  0  0  0  0  0  0  0
    4.2715   -1.5257    1.1668 H   0  0  0  0  0  0  0  0  0  0  0  0
    4.1654    0.2896    1.1784 H   0  0  0  0  0  0  0  0  0  0  0  0
    5.2989   -0.5961    0.0442 H   0  0  0  0  0  0  0  0  0  0  0  0
    3.6029   -0.2460   -1.4162 H   0  0  0  0  0  0  0  0  0  0  0  0
    2.9286   -1.7367   -0.6329 H   0  0  0  0  0  0  0  0  0  0  0  0
   -0.5652    1.5144   -1.3463 H   0  0  0  0  0  0  0  0  0  0  0  0
    0.2560    0.5937    1.3497 H   0  0  0  0  0  0  0  0  0  0  0  0
    0.6607    2.0550    0.5973 H   0  0  0  0  0  0  0  0  0  0  0  0
   -1.3770   -0.8754   -1.4655 H   0  0  0  0  0  0  0  0  0  0  0  0
   -1.0685   -1.0940    0.2576 H   0  0  0  0  0  0  0  0  0  0  0  0
   -3.1404    0.8999   -0.9167 H   0  0  0  0  0  0  0  0  0  0  0  0
   -4.3743   -0.7898   -0.7387 H   0  0  0  0  0  0  0  0  0  0  0  0
   -3.9292    0.9512    1.4359 H   0  0  0  0  0  0  0  0  0  0  0  0
   -2.3095    1.7364    1.2236 H   0  0  0  0  0  0  0  0  0  0  0  0
   -2.6325   -1.0506    1.8822 H   0  0  0  0  0  0  0  0  0  0  0  0
  1  2  1  0
  2  3  1  0
  3  4  1  0
  4  5  2  0
  4  6  1  0
  6  7  1  0
  6  8  1  0
  8  9  1  0
  9 10  1  0
  9 11  1  0
 11 12  1  0
  1 13  1  0
  1 14  1  0
  1 15  1  0
  2 16  1  0
  2 17  1  0
  6 18  1  6
  7 19  1  0
  7 20  1  0
  8 21  1  0
  8 22  1  0
  9 23  1  6
 10 24  1  0
 11 25  1  0
 11 26  1  0
 12 27  1  0
M  END
$$$$

     RDKit          3D

 27 26  0  0  0  0  0  0  0  0999 V2000
    4.1378    0.1816   -0.5433 C   0  0  0  0  0  0  0  0  0  0  0  0
    3.2122   -0.9511   -0.9133 C   0  0  0  0  0  0  0  0  0  0  0  0
    1.8839   -0.4204   -0.9815 O   0  0  0  0  0  0  0  0  0  0  0  0
    1.3961    0.1492    0.2043 C   0  0  0  0  0  0  0  0  0  0  0  0
    2.1097    0.1736    1.2409 O   0  0  0  0  0  0  0  0  0  0  0  0
    0.0412    0.7228    0.2389 C   0  0  2  0  0  0  0  0  0  0  0  0
   -0.2549    1.2481    1.5379 N   0  0  0  0  0  0  0  0  0  0  0  0
   -0.9407   -0.3623   -0.1299 C   0  0  0  0  0  0  0  0  0  0  0  0
   -2.3318    0.1899   -0.1040 C   0  0  1  0  0  0  0  0  0  0  0  0
   -2.4179    1.2232   -1.0118 O   0  0  0  0  0  0  0  0  0  0  0  0
   -3.3581   -0.8758   -0.4167 C   0  0  0  0  0  0  0  0  0  0  0  0
   -4.6348   -0.3212   -0.3535 O   0  0  0  0  0  0  0  0  0  0  0  0
    5.0544    0.1746   -1.1894 H   0  0  0  0  0  0  0  0  0  0  0  0
    4.4216    0.1314    0.5470 H   0  0  0  0  0  0  0  0  0  0  0  0
    3.6426    1.1869   -0.6772 H   0  0  0  0  0  0  0  0  0  0  0  0
    3.2121   -1.7227   -0.1156 H   0  0  0  0  0  0  0  0  0  0  0  0
    3.4859   -1.4223   -1.8774 H   0  0  0  0  0  0  0  0  0  0  0  0
   -0.0310    1.5499   -0.4913 H   0  0  0  0  0  0  0  0  0  0  0  0
   -0.8434    0.6636    2.1328 H   0  0  0  0  0  0  0  0  0  0  0  0
   -0.3739    2.2550    1.5986 H   0  0  0  0  0  0  0  0  0  0  0  0
   -0.8485   -1.2346    0.5494 H   0  0  0  0  0  0  0  0  0  0  0  0
   -0.6669   -0.7305   -1.1409 H   0  0  0  0  0  0  0  0  0  0  0  0
   -2.5461    0.5326    0.9390 H   0  0  0  0  0  0  0  0  0  0  0  0
   -1.8739    0.9412   -1.8120 H   0  0  0  0  0  0  0  0  0  0  0  0
   -3.2111   -1.2714   -1.4510 H   0  0  0  0  0  0  0  0  0  0  0  0
   -3.2910   -1.7172    0.2844 H   0  0  0  0  0  0  0  0  0  0  0  0
   -4.9737   -0.2941    0.5877 H   0  0  0  0  0  0  0  0  0  0  0  0
  1  2  1  0
  2  3  1  0
  3  4  1  0
  4  5  2  0
  4  6  1  0
  6  7  1  0
  6  8  1  0
  8  9  1  0
  9 10  1  0
  9 11  1  0
 11 12  1  0
  1 13  1  0
  1 14  1  0
  1 15  1  0
  2 16  1  0
  2 17  1  0
  6 18  1  6
  7 19  1  0
  7 20  1  0
  8 21  1  0
  8 22  1  0
  9 23  1  1
 10 24  1  0
 11 25  1  0
 11 26  1  0
 12 27  1  0
M  END
$$$$

     RDKit          3D

 27 26  0  0  0  0  0  0  0  0999 V2000
    3.9110   -0.0490    0.5998 C   0  0  0  0  0  0  0  0  0  0  0  0
    3.1357   -1.3331    0.4815 C   0  0  0  0  0  0  0  0  0  0  0  0
    1.7363   -1.1353    0.5278 O   0  0  0  0  0  0  0  0  0  0  0  0
    1.1261   -0.3393   -0.4280 C   0  0  0  0  0  0  0  0  0  0  0  0
    1.8808    0.1689   -1.2986 O   0  0  0  0  0  0  0  0  0  0  0  0
   -0.3015   -0.0550   -0.4941 C   0  0  2  0  0  0  0  0  0  0  0  0
   -0.5886    0.8011   -1.6062 N   0  0  0  0  0  0  0  0  0  0  0  0
   -0.8684    0.5514    0.7585 C   0  0  0  0  0  0  0  0  0  0  0  0
   -2.3309    0.7948    0.5670 C   0  0  1  0  0  0  0  0  0  0  0  0
   -2.5273    1.6771   -0.5143 O   0  0  0  0  0  0  0  0  0  0  0  0
   -3.1059   -0.4553    0.2486 C   0  0  0  0  0  0  0  0  0  0  0  0
   -3.0141   -1.4268    1.2206 O   0  0  0  0  0  0  0  0  0  0  0  0
    4.5848   -0.0744    1.5039 H   0  0  0  0  0  0  0  0  0  0  0  0
    3.2295    0.8202    0.6144 H   0  0  0  0  0  0  0  0  0  0  0  0
    4.6101    0.1116   -0.2602 H   0  0  0  0  0  0  0  0  0  0  0  0
    3.4934   -2.0584    1.2115 H   0  0  0  0  0  0  0  0  0  0  0  0
    3.3783   -1.7575   -0.5368 H   0  0  0  0  0  0  0  0  0  0  0  0
   -0.8360   -1.0184   -0.6704 H   0  0  0  0  0  0  0  0  0  0  0  0
    0.0301    0.5094   -2.3974 H   0  0  0  0  0  0  0  0  0  0  0  0
   -0.3033    1.7712   -1.3521 H   0  0  0  0  0  0  0  0  0  0  0  0
   -0.3800    1.5210    0.9475 H   0  0  0  0  0  0  0  0  0  0  0  0
   -0.7223   -0.0716    1.6516 H   0  0  0  0  0  0  0  0  0  0  0  0
   -2.8161    1.2778    1.4356 H   0  0  0  0  0  0  0  0  0  0  0  0
   -2.3712    2.5828   -0.1659 H   0  0  0  0  0  0  0  0  0  0  0  0
   -2.8669   -0.8576   -0.7748 H   0  0  0  0  0  0  0  0  0  0  0  0
   -4.1858   -0.1380    0.1665 H   0  0  0  0  0  0  0  0  0  0  0  0
   -3.8976   -1.8176    1.3920 H   0  0  0  0  0  0  0  0  0  0  0  0
  1  2  1  0
  2  3  1  0
  3  4  1  0
  4  5  2  0
  4  6  1  0
  6  7  1  0
  6  8  1  0
  8  9  1  0
  9 10  1  0
  9 11  1  0
 11 12  1  0
  1 13  1  0
  1 14  1  0
  1 15  1  0
  2 16  1  0
  2 17  1  0
  6 18  1  6
  7 19  1  0
  7 20  1  0
  8 21  1  0
  8 22  1  0
  9 23  1  1
 10 24  1  0
 11 25  1  0
 11 26  1  0
 12 27  1  0
M  END
$$$$

     RDKit          3D

 27 26  0  0  0  0  0  0  0  0999 V2000
    3.7797    0.9440   -0.0730 C   0  0  0  0  0  0  0  0  0  0  0  0
    3.5223   -0.3018   -0.8870 C   0  0  0  0  0  0  0  0  0  0  0  0
    2.1214   -0.5165   -1.0742 O   0  0  0  0  0  0  0  0  0  0  0  0
    1.2453   -0.6939   -0.0369 C   0  0  0  0  0  0  0  0  0  0  0  0
    1.7156   -0.6636    1.1425 O   0  0  0  0  0  0  0  0  0  0  0  0
   -0.2122   -0.9191   -0.1822 C   0  0  2  0  0  0  0  0  0  0  0  0
   -0.5152   -0.9137   -1.5935 N   0  0  0  0  0  0  0  0  0  0  0  0
   -1.0082    0.1142    0.5792 C   0  0  0  0  0  0  0  0  0  0  0  0
   -2.4714   -0.1582    0.3997 C   0  0  1  0  0  0  0  0  0  0  0  0
   -2.8240   -1.4126    0.8679 O   0  0  0  0  0  0  0  0  0  0  0  0
   -3.3027    0.8548    1.1673 C   0  0  0  0  0  0  0  0  0  0  0  0
   -3.0196    2.1564    0.7664 O   0  0  0  0  0  0  0  0  0  0  0  0
    3.0970    1.7638   -0.4073 H   0  0  0  0  0  0  0  0  0  0  0  0
    3.6397    0.7598    1.0028 H   0  0  0  0  0  0  0  0  0  0  0  0
    4.8016    1.2772   -0.2890 H   0  0  0  0  0  0  0  0  0  0  0  0
    3.9897   -1.1675   -0.4200 H   0  0  0  0  0  0  0  0  0  0  0  0
    3.9367   -0.1305   -1.9018 H   0  0  0  0  0  0  0  0  0  0  0  0
   -0.4749   -1.9115    0.2302 H   0  0  0  0  0  0  0  0  0  0  0  0
   -0.6310   -1.8652   -1.9935 H   0  0  0  0  0  0  0  0  0  0  0  0
    0.0999   -0.2885   -2.1480 H   0  0  0  0  0  0  0  0  0  0  0  0
   -0.7922    1.1460    0.2262 H   0  0  0  0  0  0  0  0  0  0  0  0
   -0.7626   -0.0014    1.6491 H   0  0  0  0  0  0  0  0  0  0  0  0
   -2.7181   -0.0280   -0.6816 H   0  0  0  0  0  0  0  0  0  0  0  0
   -2.6400   -2.1412    0.2563 H   0  0  0  0  0  0  0  0  0  0  0  0
   -3.1534    0.7195    2.2627 H   0  0  0  0  0  0  0  0  0  0  0  0
   -4.3708    0.6478    0.9552 H   0  0  0  0  0  0  0  0  0  0  0  0
   -3.0529    2.7297    1.5846 H   0  0  0  0  0  0  0  0  0  0  0  0
  1  2  1  0
  2  3  1  0
  3  4  1  0
  4  5  2  0
  4  6  1  0
  6  7  1  0
  6  8  1  0
  8  9  1  0
  9 10  1  0
  9 11  1  0
 11 12  1  0
  1 13  1  0
  1 14  1  0
  1 15  1  0
  2 16  1  0
  2 17  1  0
  6 18  1  1
  7 19  1  0
  7 20  1  0
  8 21  1  0
  8 22  1  0
  9 23  1  6
 10 24  1  0
 11 25  1  0
 11 26  1  0
 12 27  1  0
M  END
$$$$

     RDKit          3D

 27 26  0  0  0  0  0  0  0  0999 V2000
    4.4862   -0.1198    0.8767 C   0  0  0  0  0  0  0  0  0  0  0  0
    3.5970   -0.3141   -0.3592 C   0  0  0  0  0  0  0  0  0  0  0  0
    2.3079    0.0870    0.0169 O   0  0  0  0  0  0  0  0  0  0  0  0
    1.1977    0.0776   -0.7859 C   0  0  0  0  0  0  0  0  0  0  0  0
    1.3164   -0.3195   -1.9639 O   0  0  0  0  0  0  0  0  0  0  0  0
   -0.0909    0.5288   -0.2504 C   0  0  2  0  0  0  0  0  0  0  0  0
    0.0360    0.9364    1.1316 N   0  0  0  0  0  0  0  0  0  0  0  0
   -1.1740   -0.5220   -0.3200 C   0  0  0  0  0  0  0  0  0  0  0  0
   -2.4087    0.1279    0.2722 C   0  0  1  0  0  0  0  0  0  0  0  0
   -2.6960    1.2443   -0.5134 O   0  0  0  0  0  0  0  0  0  0  0  0
   -3.5977   -0.7995    0.2589 C   0  0  0  0  0  0  0  0  0  0  0  0
   -4.6927   -0.1118    0.7770 O   0  0  0  0  0  0  0  0  0  0  0  0
    4.4158   -1.0628    1.4532 H   0  0  0  0  0  0  0  0  0  0  0  0
    4.0607    0.6790    1.5072 H   0  0  0  0  0  0  0  0  0  0  0  0
    5.5190    0.1270    0.5881 H   0  0  0  0  0  0  0  0  0  0  0  0
    3.6530   -1.3749   -0.6727 H   0  0  0  0  0  0  0  0  0  0  0  0
    4.0484    0.3221   -1.1517 H   0  0  0  0  0  0  0  0  0  0  0  0
   -0.4359    1.3804   -0.8934 H   0  0  0  0  0  0  0  0  0  0  0  0
   -0.5732    1.7458    1.3174 H   0  0  0  0  0  0  0  0  0  0  0  0
   -0.0830    0.1361    1.7807 H   0  0  0  0  0  0  0  0  0  0  0  0
   -1.3841   -0.8210   -1.3693 H   0  0  0  0  0  0  0  0  0  0  0  0
   -0.9205   -1.4222    0.2696 H   0  0  0  0  0  0  0  0  0  0  0  0
   -2.1778    0.4849    1.2988 H   0  0  0  0  0  0  0  0  0  0  0  0
   -2.3887    1.0829   -1.4319 H   0  0  0  0  0  0  0  0  0  0  0  0
   -3.8005   -1.0747   -0.7880 H   0  0  0  0  0  0  0  0  0  0  0  0
   -3.3850   -1.7267    0.8235 H   0  0  0  0  0  0  0  0  0  0  0  0
   -4.8295    0.7091    0.2663 H   0  0  0  0  0  0  0  0  0  0  0  0
  1  2  1  0
  2  3  1  0
  3  4  1  0
  4  5  2  0
  4  6  1  0
  6  7  1  0
  6  8  1  0
  8  9  1  0
  9 10  1  0
  9 11  1  0
 11 12  1  0
  1 13  1  0
  1 14  1  0
  1 15  1  0
  2 16  1  0
  2 17  1  0
  6 18  1  6
  7 19  1  0
  7 20  1  0
  8 21  1  0
  8 22  1  0
  9 23  1  1
 10 24  1  0
 11 25  1  0
 11 26  1  0
 12 27  1  0
M  END
$$$$
