
     RDKit          3D

 26 25  0  0  0  0  0  0  0  0999 V2000
   -4.7998    0.4413    0.2379 C   0  0  0  0  0  0  0  0  0  0  0  0
   -3.4710   -0.0256   -0.1833 C   0  0  0  0  0  0  0  0  0  0  0  0
   -3.3880   -0.8941   -1.0200 O   0  0  0  0  0  0  0  0  0  0  0  0
   -2.2586    0.5574    0.4068 C   0  0  0  0  0  0  0  0  0  0  0  0
   -1.0704   -0.0603   -0.1632 N   0  0  0  0  0  0  0  0  0  0  0  0
    0.2294    0.3413    0.2537 C   0  0  0  0  0  0  0  0  0  0  0  0
    0.3788    1.2482    1.1329 O   0  0  0  0  0  0  0  0  0  0  0  0
    1.3835   -0.3453   -0.3836 C   0  0  1  0  0  0  0  0  0  0  0  0
    1.2687   -0.1205   -1.8807 C   0  0  0  0  0  0  0  0  0  0  0  0
    2.6451    0.1227    0.0969 N   0  0  0  0  0  0  0  0  0  0  0  0
    3.5545   -0.7695    0.7281 C   0  0  0  0  0  0  0  0  0  0  0  0
    4.8239   -0.3640    1.2268 N   0  0  0  0  0  0  0  0  0  0  0  0
    3.2560   -1.9869    0.8709 O   0  0  0  0  0  0  0  0  0  0  0  0
   -5.0025    1.4400   -0.1906 H   0  0  0  0  0  0  0  0  0  0  0  0
   -4.8654    0.4127    1.3434 H   0  0  0  0  0  0  0  0  0  0  0  0
   -5.6164   -0.2388   -0.1436 H   0  0  0  0  0  0  0  0  0  0  0  0
   -2.2531    1.6470    0.1456 H   0  0  0  0  0  0  0  0  0  0  0  0
   -2.2625    0.4061    1.4861 H   0  0  0  0  0  0  0  0  0  0  0  0
   -1.1817   -0.8056   -0.8854 H   0  0  0  0  0  0  0  0  0  0  0  0
    1.2819   -1.4112   -0.1842 H   0  0  0  0  0  0  0  0  0  0  0  0
    2.1362   -0.6661   -2.3403 H   0  0  0  0  0  0  0  0  0  0  0  0
    0.3322   -0.5707   -2.2321 H   0  0  0  0  0  0  0  0  0  0  0  0
    1.3716    0.9411   -2.1359 H   0  0  0  0  0  0  0  0  0  0  0  0
    2.9500    1.1365    0.0043 H   0  0  0  0  0  0  0  0  0  0  0  0
    5.0258   -0.4390    2.2438 H   0  0  0  0  0  0  0  0  0  0  0  0
    5.5317    0.0033    0.5546 H   0  0  0  0  0  0  0  0  0  0  0  0
  1  2  1  0
  2  3  2  0
  2  4  1  0
  4  5  1  0
  5  6  1  0
  6  7  2  0
  6  8  1  0
  8  9  1  0
  8 10  1  0
 10 11  1  0
 11 12  1  0
 11 13  2  0
  1 14  1  0
  1 15  1  0
  1 16  1  0
  4 17  1  0
  4 18  1  0
  5 19  1  0
  8 20  1  6
  9 21  1  0
  9 22  1  0
  9 23  1  0
 10 24  1  0
 12 25  1  0
 12 26  1  0
M  END
$$$$

     RDKit          3D

 26 25  0  0  0  0  0  0  0  0999 V2000
    4.8075   -0.0875    0.5955 C   0  0  0  0  0  0  0  0  0  0  0  0
    3.5235   -0.0483   -0.1531 C   0  0  0  0  0  0  0  0  0  0  0  0
    3.4570   -0.0202   -1.3742 O   0  0  0  0  0  0  0  0  0  0  0  0
    2.2606   -0.0433    0.6344 C   0  0  0  0  0  0  0  0  0  0  0  0
    1.1008   -0.0036   -0.2350 N   0  0  0  0  0  0  0  0  0  0  0  0
   -0.1770    0.0059    0.3616 C   0  0  0  0  0  0  0  0  0  0  0  0
   -0.3356   -0.0188    1.6096 O   0  0  0  0  0  0  0  0  0  0  0  0
   -1.3843    0.0465   -0.5078 C   0  0  1  0  0  0  0  0  0  0  0  0
   -1.3640   -1.2377   -1.3292 C   0  0  0  0  0  0  0  0  0  0  0  0
   -2.5961    0.0504    0.2888 N   0  0  0  0  0  0  0  0  0  0  0  0
   -3.5766    1.0475    0.0853 C   0  0  0  0  0  0  0  0  0  0  0  0
   -4.7735    1.0954    0.8344 N   0  0  0  0  0  0  0  0  0  0  0  0
   -3.3565    1.9249   -0.8086 O   0  0  0  0  0  0  0  0  0  0  0  0
    5.6534    0.2670   -0.0149 H   0  0  0  0  0  0  0  0  0  0  0  0
    4.6898    0.5188    1.5165 H   0  0  0  0  0  0  0  0  0  0  0  0
    4.9806   -1.1478    0.8978 H   0  0  0  0  0  0  0  0  0  0  0  0
    2.2312   -0.9676    1.2610 H   0  0  0  0  0  0  0  0  0  0  0  0
    2.2251    0.8411    1.2823 H   0  0  0  0  0  0  0  0  0  0  0  0
    1.1585    0.0184   -1.2750 H   0  0  0  0  0  0  0  0  0  0  0  0
   -1.3706    0.8768   -1.2253 H   0  0  0  0  0  0  0  0  0  0  0  0
   -2.1645   -1.2347   -2.0909 H   0  0  0  0  0  0  0  0  0  0  0  0
   -1.4715   -2.0782   -0.6076 H   0  0  0  0  0  0  0  0  0  0  0  0
   -0.3606   -1.3465   -1.7792 H   0  0  0  0  0  0  0  0  0  0  0  0
   -2.7480   -0.6724    1.0058 H   0  0  0  0  0  0  0  0  0  0  0  0
   -5.5088    1.7936    0.6054 H   0  0  0  0  0  0  0  0  0  0  0  0
   -4.9003    0.4206    1.6146 H   0  0  0  0  0  0  0  0  0  0  0  0
  1  2  1  0
  2  3  2  0
  2  4  1  0
  4  5  1  0
  5  6  1  0
  6  7  2  0
  6  8  1  0
  8  9  1  0
  8 10  1  0
 10 11  1  0
 11 12  1  0
 11 13  2  0
  1 14  1  0
  1 15  1  0
  1 16  1  0
  4 17  1  0
  4 18  1  0
  5 19  1  0
  8 20  1  6
  9 21  1  0
  9 22  1  0
  9 23  1  0
 10 24  1  0
 12 25  1  0
 12 26  1  0
M  END
$$$$

     RDKit          3D

 26 25  0  0  0  0  0  0  0  0999 V2000
    3.7527    0.8879    2.1267 C   0  0  0  0  0  0  0  0  0  0  0  0
    2.6486    0.5409    1.1879 C   0  0  0  0  0  0  0  0  0  0  0  0
    2.0622    1.4273    0.6317 O   0  0  0  0  0  0  0  0  0  0  0  0
    2.2972   -0.8820    0.9598 C   0  0  0  0  0  0  0  0  0  0  0  0
    1.2127   -0.9450    0.0239 N   0  0  0  0  0  0  0  0  0  0  0  0
   -0.0374   -0.3208    0.3188 C   0  0  0  0  0  0  0  0  0  0  0  0
   -0.1820    0.2779    1.3913 O   0  0  0  0  0  0  0  0  0  0  0  0
   -1.1040   -0.4451   -0.7251 C   0  0  1  0  0  0  0  0  0  0  0  0
   -1.3158   -1.8873   -1.1278 C   0  0  0  0  0  0  0  0  0  0  0  0
   -2.3175    0.2127   -0.3365 N   0  0  0  0  0  0  0  0  0  0  0  0
   -2.8372    1.3318   -1.0417 C   0  0  0  0  0  0  0  0  0  0  0  0
   -4.0528    1.9361   -0.5955 N   0  0  0  0  0  0  0  0  0  0  0  0
   -2.2168    1.7738   -2.0504 O   0  0  0  0  0  0  0  0  0  0  0  0
    3.3629    1.1036    3.1419 H   0  0  0  0  0  0  0  0  0  0  0  0
    4.4187    0.0196    2.1953 H   0  0  0  0  0  0  0  0  0  0  0  0
    4.2940    1.7757    1.7366 H   0  0  0  0  0  0  0  0  0  0  0  0
    3.1843   -1.4340    0.5861 H   0  0  0  0  0  0  0  0  0  0  0  0
    2.0298   -1.3879    1.9223 H   0  0  0  0  0  0  0  0  0  0  0  0
    1.3626   -1.4582   -0.8756 H   0  0  0  0  0  0  0  0  0  0  0  0
   -0.7073    0.0785   -1.6208 H   0  0  0  0  0  0  0  0  0  0  0  0
   -0.6585   -2.1596   -1.9975 H   0  0  0  0  0  0  0  0  0  0  0  0
   -2.3555   -2.0962   -1.4140 H   0  0  0  0  0  0  0  0  0  0  0  0
   -1.0094   -2.5214   -0.2889 H   0  0  0  0  0  0  0  0  0  0  0  0
   -2.8718   -0.1250    0.5052 H   0  0  0  0  0  0  0  0  0  0  0  0
   -4.2337    1.9553    0.4301 H   0  0  0  0  0  0  0  0  0  0  0  0
   -4.7262    2.3414   -1.3052 H   0  0  0  0  0  0  0  0  0  0  0  0
  1  2  1  0
  2  3  2  0
  2  4  1  0
  4  5  1  0
  5  6  1  0
  6  7  2  0
  6  8  1  0
  8  9  1  0
  8 10  1  0
 10 11  1  0
 11 12  1  0
 11 13  2  0
  1 14  1  0
  1 15  1  0
  1 16  1  0
  4 17  1  0
  4 18  1  0
  5 19  1  0
  8 20  1  6
  9 21  1  0
  9 22  1  0
  9 23  1  0
 10 24  1  0
 12 25  1  0
 12 26  1  0
M  END
$$$$

     RDKit          3D

 26 25  0  0  0  0  0  0  0  0999 V2000
   -4.6327    1.4514    0.3869 C   0  0  0  0  0  0  0  0  0  0  0  0
   -3.3092    0.9545    0.8084 C   0  0  0  0  0  0  0  0  0  0  0  0
   -3.1344    0.7417    1.9950 O   0  0  0  0  0  0  0  0  0  0  0  0
   -2.1986    0.7126   -0.1810 C   0  0  0  0  0  0  0  0  0  0  0  0
   -1.0141    0.2277    0.5041 N   0  0  0  0  0  0  0  0  0  0  0  0
    0.1767   -0.0764   -0.2135 C   0  0  0  0  0  0  0  0  0  0  0  0
    0.1512    0.0942   -1.4578 O   0  0  0  0  0  0  0  0  0  0  0  0
    1.4012   -0.5663    0.4077 C   0  0  1  0  0  0  0  0  0  0  0  0
    1.2144   -1.7867    1.2627 C   0  0  0  0  0  0  0  0  0  0  0  0
    2.4123   -0.7718   -0.6068 N   0  0  0  0  0  0  0  0  0  0  0  0
    3.5987   -0.0130   -0.6438 C   0  0  0  0  0  0  0  0  0  0  0  0
    4.6094   -0.1865   -1.6210 N   0  0  0  0  0  0  0  0  0  0  0  0
    3.7490    0.8713    0.2607 O   0  0  0  0  0  0  0  0  0  0  0  0
   -5.2967    0.5731    0.2483 H   0  0  0  0  0  0  0  0  0  0  0  0
   -4.5959    2.0111   -0.5634 H   0  0  0  0  0  0  0  0  0  0  0  0
   -5.0478    2.1040    1.2069 H   0  0  0  0  0  0  0  0  0  0  0  0
   -2.0038    1.6708   -0.7009 H   0  0  0  0  0  0  0  0  0  0  0  0
   -2.6085   -0.0450   -0.8954 H   0  0  0  0  0  0  0  0  0  0  0  0
   -1.0439    0.1028    1.5393 H   0  0  0  0  0  0  0  0  0  0  0  0
    1.7780    0.2623    1.0738 H   0  0  0  0  0  0  0  0  0  0  0  0
    1.8654   -1.7123    2.1585 H   0  0  0  0  0  0  0  0  0  0  0  0
    0.1701   -1.8478    1.6320 H   0  0  0  0  0  0  0  0  0  0  0  0
    1.5042   -2.7256    0.7504 H   0  0  0  0  0  0  0  0  0  0  0  0
    2.2954   -1.5072   -1.3652 H   0  0  0  0  0  0  0  0  0  0  0  0
    5.2536    0.5720   -1.8907 H   0  0  0  0  0  0  0  0  0  0  0  0
    4.7060   -1.1108   -2.0832 H   0  0  0  0  0  0  0  0  0  0  0  0
  1  2  1  0
  2  3  2  0
  2  4  1  0
  4  5  1  0
  5  6  1  0
  6  7  2  0
  6  8  1  0
  8  9  1  0
  8 10  1  0
 10 11  1  0
 11 12  1  0
 11 13  2  0
  1 14  1  0
  1 15  1  0
  1 16  1  0
  4 17  1  0
  4 18  1  0
  5 19  1  0
  8 20  1  1
  9 21  1  0
  9 22  1  0
  9 23  1  0
 10 24  1  0
 12 25  1  0
 12 26  1  0
M  END
$$$$

     RDKit          3D

 26 25  0  0  0  0  0  0  0  0999 V2000
   -4.8094    0.5838   -0.0502 C   0  0  0  0  0  0  0  0  0  0  0  0
   -3.5334   -0.1676   -0.1379 C   0  0  0  0  0  0  0  0  0  0  0  0
   -3.5556   -1.3609   -0.3626 O   0  0  0  0  0  0  0  0  0  0  0  0
   -2.2582    0.5228    0.0447 C   0  0  0  0  0  0  0  0  0  0  0  0
   -1.1171   -0.3849   -0.0781 N   0  0  0  0  0  0  0  0  0  0  0  0
    0.2159    0.0895    0.0665 C   0  0  0  0  0  0  0  0  0  0  0  0
    0.3386    1.3308    0.3045 O   0  0  0  0  0  0  0  0  0  0  0  0
    1.4008   -0.8128   -0.0534 C   0  0  1  0  0  0  0  0  0  0  0  0
    1.5047   -1.3655   -1.4798 C   0  0  0  0  0  0  0  0  0  0  0  0
    2.5841   -0.0006    0.1482 N   0  0  0  0  0  0  0  0  0  0  0  0
    3.5397   -0.2725    1.1545 C   0  0  0  0  0  0  0  0  0  0  0  0
    4.6770    0.5548    1.3060 N   0  0  0  0  0  0  0  0  0  0  0  0
    3.3347   -1.2685    1.8970 O   0  0  0  0  0  0  0  0  0  0  0  0
   -5.5948   -0.1075    0.3337 H   0  0  0  0  0  0  0  0  0  0  0  0
   -5.1339    0.8687   -1.0887 H   0  0  0  0  0  0  0  0  0  0  0  0
   -4.7268    1.5107    0.5447 H   0  0  0  0  0  0  0  0  0  0  0  0
   -2.1842    1.0841    1.0144 H   0  0  0  0  0  0  0  0  0  0  0  0
   -2.0852    1.3062   -0.7474 H   0  0  0  0  0  0  0  0  0  0  0  0
   -1.2928   -1.3869   -0.2734 H   0  0  0  0  0  0  0  0  0  0  0  0
    1.3891   -1.6267    0.6768 H   0  0  0  0  0  0  0  0  0  0  0  0
    0.7274   -2.1394   -1.5972 H   0  0  0  0  0  0  0  0  0  0  0  0
    1.1894   -0.5154   -2.1384 H   0  0  0  0  0  0  0  0  0  0  0  0
    2.5190   -1.6857   -1.7173 H   0  0  0  0  0  0  0  0  0  0  0  0
    2.7264    0.8170   -0.4820 H   0  0  0  0  0  0  0  0  0  0  0  0
    4.7148    1.1899    2.1295 H   0  0  0  0  0  0  0  0  0  0  0  0
    5.4296    0.4934    0.5860 H   0  0  0  0  0  0  0  0  0  0  0  0
  1  2  1  0
  2  3  2  0
  2  4  1  0
  4  5  1  0
  5  6  1  0
  6  7  2  0
  6  8  1  0
  8  9  1  0
  8 10  1  0
 10 11  1  0
 11 12  1  0
 11 13  2  0
  1 14  1  0
  1 15  1  0
  1 16  1  0
  4 17  1  0
  4 18  1  0
  5 19  1  0
  8 20  1  1
  9 21  1  0
  9 22  1  0
  9 23  1  0
 10 24  1  0
 12 25  1  0
 12 26  1  0
M  END
$$$$

     RDKit          3D

 26 25  0  0  0  0  0  0  0  0999 V2000
    4.2363   -0.6246   -1.0265 C   0  0  0  0  0  0  0  0  0  0  0  0
    2.8739   -0.6833   -0.4623 C   0  0  0  0  0  0  0  0  0  0  0  0
    2.0263   -1.3572   -0.9939 O   0  0  0  0  0  0  0  0  0  0  0  0
    2.5287    0.0772    0.7546 C   0  0  0  0  0  0  0  0  0  0  0  0
    1.1615   -0.0950    1.1637 N   0  0  0  0  0  0  0  0  0  0  0  0
    0.0510    0.2504    0.3480 C   0  0  0  0  0  0  0  0  0  0  0  0
    0.2618    0.7296   -0.7863 O   0  0  0  0  0  0  0  0  0  0  0  0
   -1.3602    0.0521    0.8188 C   0  0  1  0  0  0  0  0  0  0  0  0
   -1.5176    0.9562    2.0359 C   0  0  0  0  0  0  0  0  0  0  0  0
   -2.3200    0.4627   -0.1507 N   0  0  0  0  0  0  0  0  0  0  0  0
   -3.3134   -0.4857   -0.5679 C   0  0  0  0  0  0  0  0  0  0  0  0
   -4.3041   -0.1450   -1.5330 N   0  0  0  0  0  0  0  0  0  0  0  0
   -3.3041   -1.6416   -0.0666 O   0  0  0  0  0  0  0  0  0  0  0  0
    4.9274    0.0024   -0.4261 H   0  0  0  0  0  0  0  0  0  0  0  0
    4.7182   -1.6265   -1.0898 H   0  0  0  0  0  0  0  0  0  0  0  0
    4.2406   -0.1514   -2.0517 H   0  0  0  0  0  0  0  0  0  0  0  0
    2.8118    1.1475    0.6347 H   0  0  0  0  0  0  0  0  0  0  0  0
    3.1845   -0.3074    1.5717 H   0  0  0  0  0  0  0  0  0  0  0  0
    0.9134   -0.4963    2.1134 H   0  0  0  0  0  0  0  0  0  0  0  0
   -1.5103   -0.9806    1.1352 H   0  0  0  0  0  0  0  0  0  0  0  0
   -2.5718    1.1906    2.2328 H   0  0  0  0  0  0  0  0  0  0  0  0
   -1.0107    0.4420    2.8867 H   0  0  0  0  0  0  0  0  0  0  0  0
   -0.9869    1.9248    1.8996 H   0  0  0  0  0  0  0  0  0  0  0  0
   -2.3754    1.3959   -0.5949 H   0  0  0  0  0  0  0  0  0  0  0  0
   -5.3079   -0.2510   -1.3105 H   0  0  0  0  0  0  0  0  0  0  0  0
   -4.0528    0.2143   -2.4744 H   0  0  0  0  0  0  0  0  0  0  0  0
  1  2  1  0
  2  3  2  0
  2  4  1  0
  4  5  1  0
  5  6  1  0
  6  7  2  0
  6  8  1  0
  8  9  1  0
  8 10  1  0
 10 11  1  0
 11 12  1  0
 11 13  2  0
  1 14  1  0
  1 15  1  0
  1 16  1  0
  4 17  1  0
  4 18  1  0
  5 19  1  0
  8 20  1  1
  9 21  1  0
  9 22  1  0
  9 23  1  0
 10 24  1  0
 12 25  1  0
 12 26  1  0
M  END
$$$$

     RDKit          3D

 26 25  0  0  0  0  0  0  0  0999 V2000
    4.3437    0.2050    0.6871 C   0  0  0  0  0  0  0  0  0  0  0  0
    2.9253   -0.2179    0.5206 C   0  0  0  0  0  0  0  0  0  0  0  0
    2.2373   -0.3886    1.5127 O   0  0  0  0  0  0  0  0  0  0  0  0
    2.4216   -0.4101   -0.8529 C   0  0  0  0  0  0  0  0  0  0  0  0
    1.0488   -0.8159   -0.9097 N   0  0  0  0  0  0  0  0  0  0  0  0
   -0.0220   -0.0274   -0.3719 C   0  0  0  0  0  0  0  0  0  0  0  0
    0.3249    1.0638    0.1631 O   0  0  0  0  0  0  0  0  0  0  0  0
   -1.4421   -0.4711   -0.4433 C   0  0  1  0  0  0  0  0  0  0  0  0
   -1.6602   -1.8112    0.1856 C   0  0  0  0  0  0  0  0  0  0  0  0
   -2.2391    0.5569    0.1893 N   0  0  0  0  0  0  0  0  0  0  0  0
   -3.2477    1.2787   -0.4919 C   0  0  0  0  0  0  0  0  0  0  0  0
   -4.0323    2.2953    0.1426 N   0  0  0  0  0  0  0  0  0  0  0  0
   -3.4346    0.9849   -1.7121 O   0  0  0  0  0  0  0  0  0  0  0  0
    4.7306    0.7108   -0.2408 H   0  0  0  0  0  0  0  0  0  0  0  0
    5.0263   -0.6323    0.8809 H   0  0  0  0  0  0  0  0  0  0  0  0
    4.3813    0.9796    1.4837 H   0  0  0  0  0  0  0  0  0  0  0  0
    2.6195    0.5452   -1.4055 H   0  0  0  0  0  0  0  0  0  0  0  0
    3.0386   -1.1753   -1.3461 H   0  0  0  0  0  0  0  0  0  0  0  0
    0.7585   -1.7160   -1.3506 H   0  0  0  0  0  0  0  0  0  0  0  0
   -1.7964   -0.5399   -1.5076 H   0  0  0  0  0  0  0  0  0  0  0  0
   -1.5713   -2.6122   -0.6022 H   0  0  0  0  0  0  0  0  0  0  0  0
   -2.7191   -1.8873    0.5370 H   0  0  0  0  0  0  0  0  0  0  0  0
   -0.9837   -2.0150    1.0287 H   0  0  0  0  0  0  0  0  0  0  0  0
   -2.0621    0.7737    1.1879 H   0  0  0  0  0  0  0  0  0  0  0  0
   -4.3357    2.1570    1.1304 H   0  0  0  0  0  0  0  0  0  0  0  0
   -4.3102    3.1693   -0.3507 H   0  0  0  0  0  0  0  0  0  0  0  0
  1  2  1  0
  2  3  2  0
  2  4  1  0
  4  5  1  0
  5  6  1  0
  6  7  2  0
  6  8  1  0
  8  9  1  0
  8 10  1  0
 10 11  1  0
 11 12  1  0
 11 13  2  0
  1 14  1  0
  1 15  1  0
  1 16  1  0
  4 17  1  0
  4 18  1  0
  5 19  1  0
  8 20  1  6
  9 21  1  0
  9 22  1  0
  9 23  1  0
 10 24  1  0
 12 25  1  0
 12 26  1  0
M  END
$$$$

     RDKit          3D

 26 25  0  0  0  0  0  0  0  0999 V2000
    4.7441   -0.8108    0.4533 C   0  0  0  0  0  0  0  0  0  0  0  0
    3.3549   -1.1521    0.0348 C   0  0  0  0  0  0  0  0  0  0  0  0
    3.1426   -2.2060   -0.5564 O   0  0  0  0  0  0  0  0  0  0  0  0
    2.2915   -0.1807    0.3633 C   0  0  0  0  0  0  0  0  0  0  0  0
    0.9862   -0.6100   -0.0872 N   0  0  0  0  0  0  0  0  0  0  0  0
   -0.1361    0.2006    0.1465 C   0  0  0  0  0  0  0  0  0  0  0  0
    0.0328    1.2892    0.7486 O   0  0  0  0  0  0  0  0  0  0  0  0
   -1.5133   -0.1454   -0.2725 C   0  0  1  0  0  0  0  0  0  0  0  0
   -1.9493   -1.4997    0.2093 C   0  0  0  0  0  0  0  0  0  0  0  0
   -2.4543    0.8855    0.1082 N   0  0  0  0  0  0  0  0  0  0  0  0
   -3.1692    1.6348   -0.8640 C   0  0  0  0  0  0  0  0  0  0  0  0
   -4.0894    2.6428   -0.4935 N   0  0  0  0  0  0  0  0  0  0  0  0
   -2.9424    1.3560   -2.0810 O   0  0  0  0  0  0  0  0  0  0  0  0
    4.8657    0.2790    0.3244 H   0  0  0  0  0  0  0  0  0  0  0  0
    4.9558   -1.1006    1.4984 H   0  0  0  0  0  0  0  0  0  0  0  0
    5.4744   -1.2993   -0.2501 H   0  0  0  0  0  0  0  0  0  0  0  0
    2.2630    0.0447    1.4317 H   0  0  0  0  0  0  0  0  0  0  0  0
    2.5624    0.7746   -0.1731 H   0  0  0  0  0  0  0  0  0  0  0  0
    0.8169   -1.5169   -0.5936 H   0  0  0  0  0  0  0  0  0  0  0  0
   -1.5028   -0.1864   -1.3815 H   0  0  0  0  0  0  0  0  0  0  0  0
   -2.8987   -1.3651    0.7684 H   0  0  0  0  0  0  0  0  0  0  0  0
   -2.1606   -2.2052   -0.6224 H   0  0  0  0  0  0  0  0  0  0  0  0
   -1.2366   -1.9624    0.9148 H   0  0  0  0  0  0  0  0  0  0  0  0
   -2.6214    1.0938    1.1191 H   0  0  0  0  0  0  0  0  0  0  0  0
   -3.7324    3.4670    0.0300 H   0  0  0  0  0  0  0  0  0  0  0  0
   -5.0839    2.5727   -0.7299 H   0  0  0  0  0  0  0  0  0  0  0  0
  1  2  1  0
  2  3  2  0
  2  4  1  0
  4  5  1  0
  5  6  1  0
  6  7  2  0
  6  8  1  0
  8  9  1  0
  8 10  1  0
 10 11  1  0
 11 12  1  0
 11 13  2  0
  1 14  1  0
  1 15  1  0
  1 16  1  0
  4 17  1  0
  4 18  1  0
  5 19  1  0
  8 20  1  6
  9 21  1  0
  9 22  1  0
  9 23  1  0
 10 24  1  0
 12 25  1  0
 12 26  1  0
M  END
$$$$
