
     RDKit          3D

 18 17  0  0  0  0  0  0  0  0999 V2000
   -3.3176   -0.1013   -0.0068 C   0  0  0  0  0  0  0  0  0  0  0  0
   -2.1177   -0.1959   -0.7962 N   0  0  0  0  0  0  0  0  0  0  0  0
   -0.8988    0.3367   -0.2986 C   0  0  0  0  0  0  0  0  0  0  0  0
   -0.9252    0.9025    0.8479 O   0  0  0  0  0  0  0  0  0  0  0  0
    0.3698    0.2438   -1.0600 C   0  0  0  0  0  0  0  0  0  0  0  0
    1.3783    0.8632   -0.1746 N   0  0  0  0  0  0  0  0  0  0  0  0
    1.7769   -0.1528    0.6174 O   0  0  0  0  0  0  0  0  0  0  0  0
    3.0958   -0.4771    0.6798 C   0  0  0  0  0  0  0  0  0  0  0  0
   -3.4917   -1.0425    0.5772 H   0  0  0  0  0  0  0  0  0  0  0  0
   -4.1606    0.1274   -0.6662 H   0  0  0  0  0  0  0  0  0  0  0  0
   -3.1660    0.7094    0.7709 H   0  0  0  0  0  0  0  0  0  0  0  0
   -2.0994   -0.6345   -1.7720 H   0  0  0  0  0  0  0  0  0  0  0  0
    0.3023    0.7940   -2.0074 H   0  0  0  0  0  0  0  0  0  0  0  0
    0.6815   -0.8070   -1.2216 H   0  0  0  0  0  0  0  0  0  0  0  0
    2.1444    1.2218   -0.7953 H   0  0  0  0  0  0  0  0  0  0  0  0
    3.2010   -1.4720    1.2519 H   0  0  0  0  0  0  0  0  0  0  0  0
    3.6081    0.2598    1.3488 H   0  0  0  0  0  0  0  0  0  0  0  0
    3.6189   -0.5755   -0.3094 H   0  0  0  0  0  0  0  0  0  0  0  0
  1  2  1  0
  2  3  1  0
  3  4  2  0
  3  5  1  0
  5  6  1  0
  6  7  1  0
  7  8  1  0
  1  9  1  0
  1 10  1  0
  1 11  1  0
  2 12  1  0
  5 13  1  0
  5 14  1  0
  6 15  1  0
  8 16  1  0
  8 17  1  0
  8 18  1  0
M  END
$$$$

     RDKit          3D

 18 17  0  0  0  0  0  0  0  0999 V2000
   -3.3873   -0.1975   -0.4364 C   0  0  0  0  0  0  0  0  0  0  0  0
   -2.1089    0.3649   -0.0448 N   0  0  0  0  0  0  0  0  0  0  0  0
   -0.9143   -0.3832    0.0513 C   0  0  0  0  0  0  0  0  0  0  0  0
   -0.9835   -1.6096   -0.2233 O   0  0  0  0  0  0  0  0  0  0  0  0
    0.3884    0.1855    0.4495 C   0  0  0  0  0  0  0  0  0  0  0  0
    1.4409   -0.8121    0.4625 N   0  0  0  0  0  0  0  0  0  0  0  0
    2.5874   -0.2214    0.8321 O   0  0  0  0  0  0  0  0  0  0  0  0
    3.2857    0.3387   -0.2310 C   0  0  0  0  0  0  0  0  0  0  0  0
   -3.6055   -0.0602   -1.5078 H   0  0  0  0  0  0  0  0  0  0  0  0
   -4.1671    0.3950    0.1171 H   0  0  0  0  0  0  0  0  0  0  0  0
   -3.4702   -1.2541   -0.1173 H   0  0  0  0  0  0  0  0  0  0  0  0
   -2.0436    1.3920    0.1867 H   0  0  0  0  0  0  0  0  0  0  0  0
    0.7305    1.0001   -0.2284 H   0  0  0  0  0  0  0  0  0  0  0  0
    0.3420    0.6315    1.4648 H   0  0  0  0  0  0  0  0  0  0  0  0
    1.4913   -1.2266   -0.4920 H   0  0  0  0  0  0  0  0  0  0  0  0
    4.3736    0.3629    0.0154 H   0  0  0  0  0  0  0  0  0  0  0  0
    3.1660   -0.2771   -1.1634 H   0  0  0  0  0  0  0  0  0  0  0  0
    2.8746    1.3711   -0.3807 H   0  0  0  0  0  0  0  0  0  0  0  0
  1  2  1  0
  2  3  1  0
  3  4  2  0
  3  5  1  0
  5  6  1  0
  6  7  1  0
  7  8  1  0
  1  9  1  0
  1 10  1  0
  1 11  1  0
  2 12  1  0
  5 13  1  0
  5 14  1  0
  6 15  1  0
  8 16  1  0
  8 17  1  0
  8 18  1  0
M  END
$$$$

     RDKit          3D

 18 17  0  0  0  0  0  0  0  0999 V2000
    3.0497    0.3188   -0.8604 C   0  0  0  0  0  0  0  0  0  0  0  0
    1.7185    0.3679   -0.2521 N   0  0  0  0  0  0  0  0  0  0  0  0
    0.9208   -0.8050   -0.2526 C   0  0  0  0  0  0  0  0  0  0  0  0
    1.3942   -1.8388   -0.7774 O   0  0  0  0  0  0  0  0  0  0  0  0
   -0.4141   -0.8285    0.3353 C   0  0  0  0  0  0  0  0  0  0  0  0
   -0.8342    0.4173    0.9007 N   0  0  0  0  0  0  0  0  0  0  0  0
   -2.0788    0.2458    1.4035 O   0  0  0  0  0  0  0  0  0  0  0  0
   -2.9542   -0.3446    0.5261 C   0  0  0  0  0  0  0  0  0  0  0  0
    3.0649   -0.5037   -1.6340 H   0  0  0  0  0  0  0  0  0  0  0  0
    3.8099    0.0493   -0.1111 H   0  0  0  0  0  0  0  0  0  0  0  0
    3.2064    1.2932   -1.3431 H   0  0  0  0  0  0  0  0  0  0  0  0
    1.4060    1.2708    0.1612 H   0  0  0  0  0  0  0  0  0  0  0  0
   -0.4240   -1.5852    1.1668 H   0  0  0  0  0  0  0  0  0  0  0  0
   -1.1955   -1.1573   -0.3937 H   0  0  0  0  0  0  0  0  0  0  0  0
   -0.8599    1.1990    0.2337 H   0  0  0  0  0  0  0  0  0  0  0  0
   -2.8525    0.0263   -0.5228 H   0  0  0  0  0  0  0  0  0  0  0  0
   -2.9633   -1.4503    0.5881 H   0  0  0  0  0  0  0  0  0  0  0  0
   -3.9939   -0.0261    0.8318 H   0  0  0  0  0  0  0  0  0  0  0  0
  1  2  1  0
  2  3  1  0
  3  4  2  0
  3  5  1  0
  5  6  1  0
  6  7  1  0
  7  8  1  0
  1  9  1  0
  1 10  1  0
  1 11  1  0
  2 12  1  0
  5 13  1  0
  5 14  1  0
  6 15  1  0
  8 16  1  0
  8 17  1  0
  8 18  1  0
M  END
$$$$

     RDKit          3D

 18 17  0  0  0  0  0  0  0  0999 V2000
   -3.3630    0.0484   -0.0285 C   0  0  0  0  0  0  0  0  0  0  0  0
   -2.0427   -0.4691   -0.3738 N   0  0  0  0  0  0  0  0  0  0  0  0
   -0.9376   -0.0650    0.4442 C   0  0  0  0  0  0  0  0  0  0  0  0
   -1.1261    0.7096    1.4201 O   0  0  0  0  0  0  0  0  0  0  0  0
    0.4000   -0.6017    0.0782 C   0  0  0  0  0  0  0  0  0  0  0  0
    1.4023   -0.0969    1.0031 N   0  0  0  0  0  0  0  0  0  0  0  0
    2.6075   -0.5767    0.6776 O   0  0  0  0  0  0  0  0  0  0  0  0
    3.2798    0.4399   -0.0216 C   0  0  0  0  0  0  0  0  0  0  0  0
   -4.1314   -0.3815   -0.6939 H   0  0  0  0  0  0  0  0  0  0  0  0
   -3.3481    1.1632   -0.1502 H   0  0  0  0  0  0  0  0  0  0  0  0
   -3.6217   -0.1362    1.0297 H   0  0  0  0  0  0  0  0  0  0  0  0
   -1.8965   -1.1099   -1.1834 H   0  0  0  0  0  0  0  0  0  0  0  0
    0.6993   -0.2845   -0.9348 H   0  0  0  0  0  0  0  0  0  0  0  0
    0.3444   -1.6892    0.1063 H   0  0  0  0  0  0  0  0  0  0  0  0
    1.3493    0.9191    1.1350 H   0  0  0  0  0  0  0  0  0  0  0  0
    2.5869    1.0345   -0.6511 H   0  0  0  0  0  0  0  0  0  0  0  0
    4.0851   -0.0182   -0.6055 H   0  0  0  0  0  0  0  0  0  0  0  0
    3.7123    1.1141    0.7296 H   0  0  0  0  0  0  0  0  0  0  0  0
  1  2  1  0
  2  3  1  0
  3  4  2  0
  3  5  1  0
  5  6  1  0
  6  7  1  0
  7  8  1  0
  1  9  1  0
  1 10  1  0
  1 11  1  0
  2 12  1  0
  5 13  1  0
  5 14  1  0
  6 15  1  0
  8 16  1  0
  8 17  1  0
  8 18  1  0
M  END
$$$$

     RDKit          3D

 18 17  0  0  0  0  0  0  0  0999 V2000
    3.0961   -0.5793   -0.1067 C   0  0  0  0  0  0  0  0  0  0  0  0
    1.6561   -0.3909   -0.1023 N   0  0  0  0  0  0  0  0  0  0  0  0
    1.0582    0.7699   -0.6928 C   0  0  0  0  0  0  0  0  0  0  0  0
    1.8637    1.5915   -1.2024 O   0  0  0  0  0  0  0  0  0  0  0  0
   -0.4078    1.0003   -0.7095 C   0  0  0  0  0  0  0  0  0  0  0  0
   -1.1294   -0.0775   -0.0669 N   0  0  0  0  0  0  0  0  0  0  0  0
   -2.4468    0.1126   -0.0708 O   0  0  0  0  0  0  0  0  0  0  0  0
   -3.0795   -0.3970    1.0598 C   0  0  0  0  0  0  0  0  0  0  0  0
    3.4726   -0.1336    0.8522 H   0  0  0  0  0  0  0  0  0  0  0  0
    3.5891   -0.0218   -0.9130 H   0  0  0  0  0  0  0  0  0  0  0  0
    3.3843   -1.6378   -0.0883 H   0  0  0  0  0  0  0  0  0  0  0  0
    1.0570   -1.1075    0.3347 H   0  0  0  0  0  0  0  0  0  0  0  0
   -0.7222    0.9997   -1.7808 H   0  0  0  0  0  0  0  0  0  0  0  0
   -0.7170    1.9407   -0.2568 H   0  0  0  0  0  0  0  0  0  0  0  0
   -0.8359   -1.0165   -0.4117 H   0  0  0  0  0  0  0  0  0  0  0  0
   -3.7809    0.3919    1.4133 H   0  0  0  0  0  0  0  0  0  0  0  0
   -2.3833   -0.5917    1.8946 H   0  0  0  0  0  0  0  0  0  0  0  0
   -3.6743   -1.2919    0.8474 H   0  0  0  0  0  0  0  0  0  0  0  0
  1  2  1  0
  2  3  1  0
  3  4  2  0
  3  5  1  0
  5  6  1  0
  6  7  1  0
  7  8  1  0
  1  9  1  0
  1 10  1  0
  1 11  1  0
  2 12  1  0
  5 13  1  0
  5 14  1  0
  6 15  1  0
  8 16  1  0
  8 17  1  0
  8 18  1  0
M  END
$$$$

     RDKit          3D

 18 17  0  0  0  0  0  0  0  0999 V2000
   -3.2996    0.4516   -0.2765 C   0  0  0  0  0  0  0  0  0  0  0  0
   -1.9999   -0.2199   -0.3935 N   0  0  0  0  0  0  0  0  0  0  0  0
   -0.9199    0.2058    0.4273 C   0  0  0  0  0  0  0  0  0  0  0  0
   -1.1335    1.1515    1.2260 O   0  0  0  0  0  0  0  0  0  0  0  0
    0.3881   -0.4819    0.2984 C   0  0  0  0  0  0  0  0  0  0  0  0
    1.3767    0.0698    1.2009 N   0  0  0  0  0  0  0  0  0  0  0  0
    2.5303   -0.6454    0.9872 O   0  0  0  0  0  0  0  0  0  0  0  0
    3.1500   -0.2011   -0.1810 C   0  0  0  0  0  0  0  0  0  0  0  0
   -3.1341    1.4257    0.1964 H   0  0  0  0  0  0  0  0  0  0  0  0
   -3.6790    0.5876   -1.3108 H   0  0  0  0  0  0  0  0  0  0  0  0
   -4.0141   -0.1600    0.2993 H   0  0  0  0  0  0  0  0  0  0  0  0
   -1.8726   -1.0148   -1.0854 H   0  0  0  0  0  0  0  0  0  0  0  0
    0.2641   -1.5550    0.4108 H   0  0  0  0  0  0  0  0  0  0  0  0
    0.7624   -0.2803   -0.7405 H   0  0  0  0  0  0  0  0  0  0  0  0
    1.6279    1.0535    0.9581 H   0  0  0  0  0  0  0  0  0  0  0  0
    2.9934    0.8680   -0.3733 H   0  0  0  0  0  0  0  0  0  0  0  0
    2.7195   -0.8002   -1.0263 H   0  0  0  0  0  0  0  0  0  0  0  0
    4.2404   -0.4548   -0.0735 H   0  0  0  0  0  0  0  0  0  0  0  0
  1  2  1  0
  2  3  1  0
  3  4  2  0
  3  5  1  0
  5  6  1  0
  6  7  1  0
  7  8  1  0
  1  9  1  0
  1 10  1  0
  1 11  1  0
  2 12  1  0
  5 13  1  0
  5 14  1  0
  6 15  1  0
  8 16  1  0
  8 17  1  0
  8 18  1  0
M  END
$$$$

     RDKit          3D

 18 17  0  0  0  0  0  0  0  0999 V2000
    3.2369   -0.1095    0.3248 C   0  0  0  0  0  0  0  0  0  0  0  0
    1.8456    0.2666    0.0511 N   0  0  0  0  0  0  0  0  0  0  0  0
    0.8171   -0.6436    0.4046 C   0  0  0  0  0  0  0  0  0  0  0  0
    1.1412   -1.7555    0.9479 O   0  0  0  0  0  0  0  0  0  0  0  0
   -0.6248   -0.4164    0.1966 C   0  0  0  0  0  0  0  0  0  0  0  0
   -0.8769    0.8519   -0.4181 N   0  0  0  0  0  0  0  0  0  0  0  0
   -2.1491    1.1313   -0.6319 O   0  0  0  0  0  0  0  0  0  0  0  0
   -3.0724    0.3710    0.0045 C   0  0  0  0  0  0  0  0  0  0  0  0
    3.4185   -1.0192   -0.3064 H   0  0  0  0  0  0  0  0  0  0  0  0
    3.9333    0.6943    0.0948 H   0  0  0  0  0  0  0  0  0  0  0  0
    3.2815   -0.4096    1.3882 H   0  0  0  0  0  0  0  0  0  0  0  0
    1.5895    1.1693   -0.3883 H   0  0  0  0  0  0  0  0  0  0  0  0
   -0.9925   -1.2736   -0.4417 H   0  0  0  0  0  0  0  0  0  0  0  0
   -1.1034   -0.4265    1.2016 H   0  0  0  0  0  0  0  0  0  0  0  0
   -0.2488    1.0322   -1.2332 H   0  0  0  0  0  0  0  0  0  0  0  0
   -3.2820    0.8133    1.0208 H   0  0  0  0  0  0  0  0  0  0  0  0
   -4.0725    0.4009   -0.5197 H   0  0  0  0  0  0  0  0  0  0  0  0
   -2.8413   -0.6768    0.1694 H   0  0  0  0  0  0  0  0  0  0  0  0
  1  2  1  0
  2  3  1  0
  3  4  2  0
  3  5  1  0
  5  6  1  0
  6  7  1  0
  7  8  1  0
  1  9  1  0
  1 10  1  0
  1 11  1  0
  2 12  1  0
  5 13  1  0
  5 14  1  0
  6 15  1  0
  8 16  1  0
  8 17  1  0
  8 18  1  0
M  END
$$$$

     RDKit          3D

 18 17  0  0  0  0  0  0  0  0999 V2000
    3.3647    0.4717   -0.0997 C   0  0  0  0  0  0  0  0  0  0  0  0
    2.2691   -0.3992    0.2047 N   0  0  0  0  0  0  0  0  0  0  0  0
    0.9276   -0.0360    0.0492 C   0  0  0  0  0  0  0  0  0  0  0  0
    0.5908    1.1245   -0.3866 O   0  0  0  0  0  0  0  0  0  0  0  0
   -0.2214   -0.9714    0.3860 C   0  0  0  0  0  0  0  0  0  0  0  0
   -1.4084   -0.1917    0.0100 N   0  0  0  0  0  0  0  0  0  0  0  0
   -2.3901   -0.0523    0.9515 O   0  0  0  0  0  0  0  0  0  0  0  0
   -3.4410    0.6853    0.4262 C   0  0  0  0  0  0  0  0  0  0  0  0
    4.2628   -0.1901   -0.4382 H   0  0  0  0  0  0  0  0  0  0  0  0
    3.6822    1.0043    0.7946 H   0  0  0  0  0  0  0  0  0  0  0  0
    3.1789    1.1852   -0.9019 H   0  0  0  0  0  0  0  0  0  0  0  0
    2.4689   -1.3810    0.5154 H   0  0  0  0  0  0  0  0  0  0  0  0
   -0.0979   -1.8209   -0.3000 H   0  0  0  0  0  0  0  0  0  0  0  0
   -0.1248   -1.3242    1.3587 H   0  0  0  0  0  0  0  0  0  0  0  0
   -1.8746   -0.7093   -0.8514 H   0  0  0  0  0  0  0  0  0  0  0  0
   -3.5029    0.5485   -0.6705 H   0  0  0  0  0  0  0  0  0  0  0  0
   -4.3826    0.3195    0.8918 H   0  0  0  0  0  0  0  0  0  0  0  0
   -3.3011    1.7371    0.6193 H   0  0  0  0  0  0  0  0  0  0  0  0
  1  2  1  0
  2  3  1  0
  3  4  2  0
  3  5  1  0
  5  6  1  0
  6  7  1  0
  7  8  1  0
  1  9  1  0
  1 10  1  0
  1 11  1  0
  2 12  1  0
  5 13  1  0
  5 14  1  0
  6 15  1  0
  8 16  1  0
  8 17  1  0
  8 18  1  0
M  END
$$$$
