
     RDKit          3D

 31 32  0  0  0  0  0  0  0  0999 V2000
    4.6492   -0.1398    0.3861 C   0  0  0  0  0  0  0  0  0  0  0  0
    3.3826   -0.6518   -0.0383 N   0  0  0  0  0  0  0  0  0  0  0  0
    2.3242   -0.6519    0.9364 C   0  0  0  0  0  0  0  0  0  0  0  0
    1.5684    0.3452    0.0862 C   0  0  0  0  0  0  0  0  0  0  0  0
    0.2988   -0.1000   -0.3990 N   0  0  0  0  0  0  0  0  0  0  0  0
   -0.8256    0.7682   -0.3467 C   0  0  0  0  0  0  0  0  0  0  0  0
   -0.6529    1.9365    0.1421 O   0  0  0  0  0  0  0  0  0  0  0  0
   -2.1622    0.3995   -0.8193 C   0  0  2  0  0  0  0  0  0  0  0  0
   -3.0519    1.4377   -0.6441 O   0  0  0  0  0  0  0  0  0  0  0  0
   -3.3651    1.4935    0.7070 C   0  0  0  0  0  0  0  0  0  0  0  0
   -3.1447    0.1310    1.2865 C   0  0  0  0  0  0  0  0  0  0  0  0
   -2.7911   -0.6873    0.0536 C   0  0  2  0  0  0  0  0  0  0  0  0
   -1.8880   -1.7570    0.3305 N   0  0  0  0  0  0  0  0  0  0  0  0
    2.6411    0.1293   -0.9797 C   0  0  0  0  0  0  0  0  0  0  0  0
    5.1454    0.3808   -0.4767 H   0  0  0  0  0  0  0  0  0  0  0  0
    4.6112    0.4954    1.2729 H   0  0  0  0  0  0  0  0  0  0  0  0
    5.3071   -1.0326    0.5937 H   0  0  0  0  0  0  0  0  0  0  0  0
    1.8110   -1.6413    0.9294 H   0  0  0  0  0  0  0  0  0  0  0  0
    2.5756   -0.2414    1.9197 H   0  0  0  0  0  0  0  0  0  0  0  0
    1.5337    1.3650    0.4667 H   0  0  0  0  0  0  0  0  0  0  0  0
    0.1533   -1.0574   -0.8006 H   0  0  0  0  0  0  0  0  0  0  0  0
   -2.1788    0.1021   -1.8877 H   0  0  0  0  0  0  0  0  0  0  0  0
   -2.8051    2.2875    1.2431 H   0  0  0  0  0  0  0  0  0  0  0  0
   -4.4434    1.7343    0.8036 H   0  0  0  0  0  0  0  0  0  0  0  0
   -2.2286    0.1792    1.9135 H   0  0  0  0  0  0  0  0  0  0  0  0
   -4.0083   -0.2755    1.8324 H   0  0  0  0  0  0  0  0  0  0  0  0
   -3.7287   -1.0045   -0.4345 H   0  0  0  0  0  0  0  0  0  0  0  0
   -2.2874   -2.6310   -0.0826 H   0  0  0  0  0  0  0  0  0  0  0  0
   -1.8579   -1.9067    1.3638 H   0  0  0  0  0  0  0  0  0  0  0  0
    2.3073   -0.4759   -1.8413 H   0  0  0  0  0  0  0  0  0  0  0  0
    3.1110    1.0691   -1.3315 H   0  0  0  0  0  0  0  0  0  0  0  0
  1  2  1  0
  2  3  1  0
  3  4  1  0
  4  5  1  0
  5  6  1  0
  6  7  2  0
  6  8  1  0
  8  9  1  0
  9 10  1  0
 10 11  1  0
 11 12  1  0
 12 13  1  0
  4 14  1  0
 14  2  1  0
 12  8  1  0
  1 15  1  0
  1 16  1  0
  1 17  1  0
  3 18  1  0
  3 19  1  0
  4 20  1  0
  5 21  1  0
  8 22  1  6
 10 23  1  0
 10 24  1  0
 11 25  1  0
 11 26  1  0
 12 27  1  6
 13 28  1  0
 13 29  1  0
 14 30  1  0
 14 31  1  0
M  END
$$$$

     RDKit          3D

 31 32  0  0  0  0  0  0  0  0999 V2000
    4.5734   -1.1685    0.7015 C   0  0  0  0  0  0  0  0  0  0  0  0
    3.1693   -0.9198    0.4845 N   0  0  0  0  0  0  0  0  0  0  0  0
    2.9066    0.4922    0.3833 C   0  0  0  0  0  0  0  0  0  0  0  0
    1.8937    0.2165   -0.6603 C   0  0  0  0  0  0  0  0  0  0  0  0
    0.5823   -0.1642   -0.3005 N   0  0  0  0  0  0  0  0  0  0  0  0
   -0.6174    0.2271   -0.9506 C   0  0  0  0  0  0  0  0  0  0  0  0
   -0.5088    0.9761   -1.9305 O   0  0  0  0  0  0  0  0  0  0  0  0
   -1.9625   -0.2049   -0.5267 C   0  0  2  0  0  0  0  0  0  0  0  0
   -2.9685    0.3012   -1.3078 O   0  0  0  0  0  0  0  0  0  0  0  0
   -4.1443    0.2036   -0.6169 C   0  0  0  0  0  0  0  0  0  0  0  0
   -3.8287    0.0457    0.8457 C   0  0  0  0  0  0  0  0  0  0  0  0
   -2.3218    0.3395    0.8529 C   0  0  2  0  0  0  0  0  0  0  0  0
   -2.1867    1.7751    0.8587 N   0  0  0  0  0  0  0  0  0  0  0  0
    2.7619   -1.0090   -0.9276 C   0  0  0  0  0  0  0  0  0  0  0  0
    5.1597   -1.1215   -0.2558 H   0  0  0  0  0  0  0  0  0  0  0  0
    4.7791   -2.1038    1.2419 H   0  0  0  0  0  0  0  0  0  0  0  0
    4.9544   -0.3344    1.3456 H   0  0  0  0  0  0  0  0  0  0  0  0
    3.8000    0.9987   -0.0882 H   0  0  0  0  0  0  0  0  0  0  0  0
    2.6277    1.0264    1.2798 H   0  0  0  0  0  0  0  0  0  0  0  0
    1.9465    0.8919   -1.5486 H   0  0  0  0  0  0  0  0  0  0  0  0
    0.4579   -0.8050    0.5344 H   0  0  0  0  0  0  0  0  0  0  0  0
   -2.0690   -1.3052   -0.4693 H   0  0  0  0  0  0  0  0  0  0  0  0
   -4.7263    1.1672   -0.7076 H   0  0  0  0  0  0  0  0  0  0  0  0
   -4.7689   -0.6022   -1.0275 H   0  0  0  0  0  0  0  0  0  0  0  0
   -4.3852    0.7116    1.5031 H   0  0  0  0  0  0  0  0  0  0  0  0
   -3.9174   -1.0358    1.1168 H   0  0  0  0  0  0  0  0  0  0  0  0
   -1.8042   -0.1719    1.6618 H   0  0  0  0  0  0  0  0  0  0  0  0
   -2.2393    2.1778   -0.1037 H   0  0  0  0  0  0  0  0  0  0  0  0
   -2.9773    2.2360    1.4018 H   0  0  0  0  0  0  0  0  0  0  0  0
    3.5974   -0.7734   -1.6392 H   0  0  0  0  0  0  0  0  0  0  0  0
    2.2166   -1.9305   -1.1510 H   0  0  0  0  0  0  0  0  0  0  0  0
  1  2  1  0
  2  3  1  0
  3  4  1  0
  4  5  1  0
  5  6  1  0
  6  7  2  0
  6  8  1  0
  8  9  1  0
  9 10  1  0
 10 11  1  0
 11 12  1  0
 12 13  1  0
  4 14  1  0
 14  2  1  0
 12  8  1  0
  1 15  1  0
  1 16  1  0
  1 17  1  0
  3 18  1  0
  3 19  1  0
  4 20  1  0
  5 21  1  0
  8 22  1  1
 10 23  1  0
 10 24  1  0
 11 25  1  0
 11 26  1  0
 12 27  1  1
 13 28  1  0
 13 29  1  0
 14 30  1  0
 14 31  1  0
M  END
$$$$

     RDKit          3D

 31 32  0  0  0  0  0  0  0  0999 V2000
    4.2556   -0.4821    0.7492 C   0  0  0  0  0  0  0  0  0  0  0  0
    3.5582    0.7444    0.4782 N   0  0  0  0  0  0  0  0  0  0  0  0
    2.8256    0.7094   -0.7929 C   0  0  0  0  0  0  0  0  0  0  0  0
    1.7112    0.0170   -0.0665 C   0  0  0  0  0  0  0  0  0  0  0  0
    0.3649    0.4406   -0.4688 N   0  0  0  0  0  0  0  0  0  0  0  0
   -0.5678   -0.5630   -0.7913 C   0  0  0  0  0  0  0  0  0  0  0  0
   -0.2404   -1.7825   -0.7313 O   0  0  0  0  0  0  0  0  0  0  0  0
   -1.9645   -0.2214   -1.2118 C   0  0  2  0  0  0  0  0  0  0  0  0
   -2.1690    1.1349   -1.2248 O   0  0  0  0  0  0  0  0  0  0  0  0
   -2.6549    1.5514   -0.0131 C   0  0  0  0  0  0  0  0  0  0  0  0
   -3.1000    0.3349    0.7619 C   0  0  0  0  0  0  0  0  0  0  0  0
   -2.9855   -0.7457   -0.2648 C   0  0  2  0  0  0  0  0  0  0  0  0
   -2.6168   -2.0123    0.3355 N   0  0  0  0  0  0  0  0  0  0  0  0
    2.2416    0.7678    1.1333 C   0  0  0  0  0  0  0  0  0  0  0  0
    4.9231   -0.3400    1.6160 H   0  0  0  0  0  0  0  0  0  0  0  0
    4.8989   -0.7936   -0.1186 H   0  0  0  0  0  0  0  0  0  0  0  0
    3.5724   -1.3274    1.0154 H   0  0  0  0  0  0  0  0  0  0  0  0
    3.3500    0.1104   -1.5586 H   0  0  0  0  0  0  0  0  0  0  0  0
    2.5959    1.7539   -1.1090 H   0  0  0  0  0  0  0  0  0  0  0  0
    1.8555   -1.0612   -0.0579 H   0  0  0  0  0  0  0  0  0  0  0  0
    0.1100    1.4440   -0.5142 H   0  0  0  0  0  0  0  0  0  0  0  0
   -2.1365   -0.6343   -2.2267 H   0  0  0  0  0  0  0  0  0  0  0  0
   -1.9124    2.1080    0.5891 H   0  0  0  0  0  0  0  0  0  0  0  0
   -3.5649    2.1627   -0.1930 H   0  0  0  0  0  0  0  0  0  0  0  0
   -2.4155    0.1407    1.6048 H   0  0  0  0  0  0  0  0  0  0  0  0
   -4.1270    0.4376    1.1669 H   0  0  0  0  0  0  0  0  0  0  0  0
   -3.9465   -0.8643   -0.8236 H   0  0  0  0  0  0  0  0  0  0  0  0
   -3.3540   -2.2420    1.0380 H   0  0  0  0  0  0  0  0  0  0  0  0
   -2.5968   -2.7467   -0.3946 H   0  0  0  0  0  0  0  0  0  0  0  0
    1.8550    1.7911    1.1981 H   0  0  0  0  0  0  0  0  0  0  0  0
    2.2347    0.1678    2.0656 H   0  0  0  0  0  0  0  0  0  0  0  0
  1  2  1  0
  2  3  1  0
  3  4  1  0
  4  5  1  0
  5  6  1  0
  6  7  2  0
  6  8  1  0
  8  9  1  0
  9 10  1  0
 10 11  1  0
 11 12  1  0
 12 13  1  0
  4 14  1  0
 14  2  1  0
 12  8  1  0
  1 15  1  0
  1 16  1  0
  1 17  1  0
  3 18  1  0
  3 19  1  0
  4 20  1  0
  5 21  1  0
  8 22  1  6
 10 23  1  0
 10 24  1  0
 11 25  1  0
 11 26  1  0
 12 27  1  6
 13 28  1  0
 13 29  1  0
 14 30  1  0
 14 31  1  0
M  END
$$$$

     RDKit          3D

 31 32  0  0  0  0  0  0  0  0999 V2000
    4.7074   -0.9235   -0.4208 C   0  0  0  0  0  0  0  0  0  0  0  0
    3.7457    0.0148    0.0440 N   0  0  0  0  0  0  0  0  0  0  0  0
    2.7744   -0.5026    1.0135 C   0  0  0  0  0  0  0  0  0  0  0  0
    1.7986    0.5099    0.4109 C   0  0  0  0  0  0  0  0  0  0  0  0
    0.4357    0.0442    0.3399 N   0  0  0  0  0  0  0  0  0  0  0  0
   -0.6634    0.8098    0.7614 C   0  0  0  0  0  0  0  0  0  0  0  0
   -0.4647    1.9517    1.2224 O   0  0  0  0  0  0  0  0  0  0  0  0
   -2.0289    0.2620    0.6563 C   0  0  2  0  0  0  0  0  0  0  0  0
   -1.9986   -1.0138    0.1181 O   0  0  0  0  0  0  0  0  0  0  0  0
   -3.3311   -1.3151   -0.1588 C   0  0  0  0  0  0  0  0  0  0  0  0
   -3.9450   -0.0309   -0.6659 C   0  0  0  0  0  0  0  0  0  0  0  0
   -2.9030    1.0084   -0.3094 C   0  0  2  0  0  0  0  0  0  0  0  0
   -2.1313    1.3242   -1.4950 N   0  0  0  0  0  0  0  0  0  0  0  0
    2.5954    0.2236   -0.8461 C   0  0  0  0  0  0  0  0  0  0  0  0
    4.3882   -1.4182   -1.3752 H   0  0  0  0  0  0  0  0  0  0  0  0
    5.0108   -1.6903    0.3060 H   0  0  0  0  0  0  0  0  0  0  0  0
    5.6399   -0.3498   -0.6966 H   0  0  0  0  0  0  0  0  0  0  0  0
    2.4620   -1.5347    0.8354 H   0  0  0  0  0  0  0  0  0  0  0  0
    3.0442   -0.2938    2.0687 H   0  0  0  0  0  0  0  0  0  0  0  0
    1.9480    1.5118    0.8175 H   0  0  0  0  0  0  0  0  0  0  0  0
    0.3005   -0.9289   -0.0560 H   0  0  0  0  0  0  0  0  0  0  0  0
   -2.4886    0.1892    1.6708 H   0  0  0  0  0  0  0  0  0  0  0  0
   -3.3973   -2.1174   -0.9225 H   0  0  0  0  0  0  0  0  0  0  0  0
   -3.7896   -1.6723    0.7834 H   0  0  0  0  0  0  0  0  0  0  0  0
   -4.1211   -0.0970   -1.7536 H   0  0  0  0  0  0  0  0  0  0  0  0
   -4.8953    0.1872   -0.1258 H   0  0  0  0  0  0  0  0  0  0  0  0
   -3.3613    1.9073    0.1482 H   0  0  0  0  0  0  0  0  0  0  0  0
   -1.4636    2.0982   -1.3297 H   0  0  0  0  0  0  0  0  0  0  0  0
   -2.7780    1.5452   -2.3107 H   0  0  0  0  0  0  0  0  0  0  0  0
    2.2146   -0.7423   -1.2834 H   0  0  0  0  0  0  0  0  0  0  0  0
    2.6954    1.0432   -1.5526 H   0  0  0  0  0  0  0  0  0  0  0  0
  1  2  1  0
  2  3  1  0
  3  4  1  0
  4  5  1  0
  5  6  1  0
  6  7  2  0
  6  8  1  0
  8  9  1  0
  9 10  1  0
 10 11  1  0
 11 12  1  0
 12 13  1  0
  4 14  1  0
 14  2  1  0
 12  8  1  0
  1 15  1  0
  1 16  1  0
  1 17  1  0
  3 18  1  0
  3 19  1  0
  4 20  1  0
  5 21  1  0
  8 22  1  1
 10 23  1  0
 10 24  1  0
 11 25  1  0
 11 26  1  0
 12 27  1  1
 13 28  1  0
 13 29  1  0
 14 30  1  0
 14 31  1  0
M  END
$$$$

     RDKit          3D

 31 32  0  0  0  0  0  0  0  0999 V2000
    4.6796   -0.2748    0.2249 C   0  0  0  0  0  0  0  0  0  0  0  0
    3.5792    0.6182    0.4098 N   0  0  0  0  0  0  0  0  0  0  0  0
    2.4402    0.0859    1.1276 C   0  0  0  0  0  0  0  0  0  0  0  0
    1.7505   -0.1444   -0.1815 C   0  0  0  0  0  0  0  0  0  0  0  0
    0.4113    0.4067   -0.2874 N   0  0  0  0  0  0  0  0  0  0  0  0
   -0.5958   -0.4179   -0.8575 C   0  0  0  0  0  0  0  0  0  0  0  0
   -0.3055   -1.5733   -1.2445 O   0  0  0  0  0  0  0  0  0  0  0  0
   -1.9796    0.1113   -0.9829 C   0  0  2  0  0  0  0  0  0  0  0  0
   -2.0568    1.3904   -0.4954 O   0  0  0  0  0  0  0  0  0  0  0  0
   -3.2451    1.5492    0.1731 C   0  0  0  0  0  0  0  0  0  0  0  0
   -3.4287    0.2091    0.8592 C   0  0  0  0  0  0  0  0  0  0  0  0
   -2.9574   -0.7430   -0.2463 C   0  0  2  0  0  0  0  0  0  0  0  0
   -2.3792   -1.9179    0.3403 N   0  0  0  0  0  0  0  0  0  0  0  0
    2.7485    0.8602   -0.7345 C   0  0  0  0  0  0  0  0  0  0  0  0
    4.6382   -1.1924    0.8333 H   0  0  0  0  0  0  0  0  0  0  0  0
    4.7184   -0.5378   -0.8592 H   0  0  0  0  0  0  0  0  0  0  0  0
    5.6179    0.2841    0.4273 H   0  0  0  0  0  0  0  0  0  0  0  0
    1.9893    0.9141    1.7421 H   0  0  0  0  0  0  0  0  0  0  0  0
    2.6581   -0.8189    1.7346 H   0  0  0  0  0  0  0  0  0  0  0  0
    1.8543   -1.1606   -0.5580 H   0  0  0  0  0  0  0  0  0  0  0  0
    0.1921    1.3705    0.0410 H   0  0  0  0  0  0  0  0  0  0  0  0
   -2.2790    0.1442   -2.0668 H   0  0  0  0  0  0  0  0  0  0  0  0
   -4.0803    1.7681   -0.5283 H   0  0  0  0  0  0  0  0  0  0  0  0
   -3.1540    2.3214    0.9752 H   0  0  0  0  0  0  0  0  0  0  0  0
   -2.7611    0.1712    1.7326 H   0  0  0  0  0  0  0  0  0  0  0  0
   -4.4802    0.0099    1.0901 H   0  0  0  0  0  0  0  0  0  0  0  0
   -3.8389   -0.9834   -0.8761 H   0  0  0  0  0  0  0  0  0  0  0  0
   -3.0015   -2.2934    1.0888 H   0  0  0  0  0  0  0  0  0  0  0  0
   -2.2708   -2.6306   -0.4351 H   0  0  0  0  0  0  0  0  0  0  0  0
    3.1715    0.5720   -1.7171 H   0  0  0  0  0  0  0  0  0  0  0  0
    2.3647    1.9021   -0.7294 H   0  0  0  0  0  0  0  0  0  0  0  0
  1  2  1  0
  2  3  1  0
  3  4  1  0
  4  5  1  0
  5  6  1  0
  6  7  2  0
  6  8  1  0
  8  9  1  0
  9 10  1  0
 10 11  1  0
 11 12  1  0
 12 13  1  0
  4 14  1  0
 14  2  1  0
 12  8  1  0
  1 15  1  0
  1 16  1  0
  1 17  1  0
  3 18  1  0
  3 19  1  0
  4 20  1  0
  5 21  1  0
  8 22  1  6
 10 23  1  0
 10 24  1  0
 11 25  1  0
 11 26  1  0
 12 27  1  6
 13 28  1  0
 13 29  1  0
 14 30  1  0
 14 31  1  0
M  END
$$$$

     RDKit          3D

 31 32  0  0  0  0  0  0  0  0999 V2000
    3.8173   -2.1086    1.3932 C   0  0  0  0  0  0  0  0  0  0  0  0
    2.4969   -1.7517    0.9026 N   0  0  0  0  0  0  0  0  0  0  0  0
    2.4123   -1.5836   -0.5388 C   0  0  0  0  0  0  0  0  0  0  0  0
    1.6012   -0.3461   -0.3417 C   0  0  0  0  0  0  0  0  0  0  0  0
    0.1722   -0.4866   -0.4732 N   0  0  0  0  0  0  0  0  0  0  0  0
   -0.6320    0.4663   -1.1935 C   0  0  0  0  0  0  0  0  0  0  0  0
   -0.0022    1.4314   -1.7015 O   0  0  0  0  0  0  0  0  0  0  0  0
   -2.0920    0.2820   -1.3023 C   0  0  2  0  0  0  0  0  0  0  0  0
   -2.5862    1.3564   -2.0509 O   0  0  0  0  0  0  0  0  0  0  0  0
   -2.5442    2.4725   -1.2553 C   0  0  0  0  0  0  0  0  0  0  0  0
   -2.4197    2.0076    0.1830 C   0  0  0  0  0  0  0  0  0  0  0  0
   -2.7930    0.5404    0.0236 C   0  0  2  0  0  0  0  0  0  0  0  0
   -2.2566   -0.2707    1.0842 N   0  0  0  0  0  0  0  0  0  0  0  0
    2.1344   -0.3780    1.0657 C   0  0  0  0  0  0  0  0  0  0  0  0
    3.7988   -3.0793    1.8963 H   0  0  0  0  0  0  0  0  0  0  0  0
    4.1018   -1.3440    2.1560 H   0  0  0  0  0  0  0  0  0  0  0  0
    4.5886   -2.0529    0.6021 H   0  0  0  0  0  0  0  0  0  0  0  0
    3.4044   -1.3935   -1.0125 H   0  0  0  0  0  0  0  0  0  0  0  0
    1.8821   -2.4047   -1.0672 H   0  0  0  0  0  0  0  0  0  0  0  0
    1.9557    0.5676   -0.8595 H   0  0  0  0  0  0  0  0  0  0  0  0
   -0.2704   -1.3114   -0.0244 H   0  0  0  0  0  0  0  0  0  0  0  0
   -2.3864   -0.6674   -1.7623 H   0  0  0  0  0  0  0  0  0  0  0  0
   -3.5556    2.9722   -1.3178 H   0  0  0  0  0  0  0  0  0  0  0  0
   -1.7501    3.1867   -1.5416 H   0  0  0  0  0  0  0  0  0  0  0  0
   -3.0764    2.5406    0.8737 H   0  0  0  0  0  0  0  0  0  0  0  0
   -1.3485    2.0474    0.4634 H   0  0  0  0  0  0  0  0  0  0  0  0
   -3.8694    0.4720   -0.1110 H   0  0  0  0  0  0  0  0  0  0  0  0
   -2.4925   -1.2542    0.8805 H   0  0  0  0  0  0  0  0  0  0  0  0
   -2.7450   -0.0088    1.9574 H   0  0  0  0  0  0  0  0  0  0  0  0
    1.4080   -0.1478    1.8659 H   0  0  0  0  0  0  0  0  0  0  0  0
    3.0467    0.2459    1.2058 H   0  0  0  0  0  0  0  0  0  0  0  0
  1  2  1  0
  2  3  1  0
  3  4  1  0
  4  5  1  0
  5  6  1  0
  6  7  2  0
  6  8  1  0
  8  9  1  0
  9 10  1  0
 10 11  1  0
 11 12  1  0
 12 13  1  0
  4 14  1  0
 14  2  1  0
 12  8  1  0
  1 15  1  0
  1 16  1  0
  1 17  1  0
  3 18  1  0
  3 19  1  0
  4 20  1  0
  5 21  1  0
  8 22  1  6
 10 23  1  0
 10 24  1  0
 11 25  1  0
 11 26  1  0
 12 27  1  6
 13 28  1  0
 13 29  1  0
 14 30  1  0
 14 31  1  0
M  END
$$$$

     RDKit          3D

 31 32  0  0  0  0  0  0  0  0999 V2000
    4.8198   -0.1385   -1.0109 C   0  0  0  0  0  0  0  0  0  0  0  0
    3.7903   -0.6135   -0.1472 N   0  0  0  0  0  0  0  0  0  0  0  0
    2.4897   -0.8507   -0.7945 C   0  0  0  0  0  0  0  0  0  0  0  0
    1.8679   -0.4622    0.5461 C   0  0  0  0  0  0  0  0  0  0  0  0
    0.6125    0.2459    0.4356 N   0  0  0  0  0  0  0  0  0  0  0  0
   -0.4893   -0.1441    1.2466 C   0  0  0  0  0  0  0  0  0  0  0  0
   -0.3145   -1.1066    2.0377 O   0  0  0  0  0  0  0  0  0  0  0  0
   -1.8011    0.5055    1.2122 C   0  0  2  0  0  0  0  0  0  0  0  0
   -2.6762   -0.0925    2.1151 O   0  0  0  0  0  0  0  0  0  0  0  0
   -3.9494    0.3281    1.7772 C   0  0  0  0  0  0  0  0  0  0  0  0
   -3.9650    0.6451    0.3166 C   0  0  0  0  0  0  0  0  0  0  0  0
   -2.5315    0.3090   -0.0966 C   0  0  2  0  0  0  0  0  0  0  0  0
   -2.5004   -1.0898   -0.4680 N   0  0  0  0  0  0  0  0  0  0  0  0
    3.0960    0.4259    0.6299 C   0  0  0  0  0  0  0  0  0  0  0  0
    5.8043   -0.3666   -0.5057 H   0  0  0  0  0  0  0  0  0  0  0  0
    4.8162    0.9553   -1.1722 H   0  0  0  0  0  0  0  0  0  0  0  0
    4.8844   -0.7013   -1.9827 H   0  0  0  0  0  0  0  0  0  0  0  0
    2.2862   -1.8989   -1.0397 H   0  0  0  0  0  0  0  0  0  0  0  0
    2.2653   -0.1020   -1.5864 H   0  0  0  0  0  0  0  0  0  0  0  0
    1.8898   -1.2762    1.2678 H   0  0  0  0  0  0  0  0  0  0  0  0
    0.4782    1.0283   -0.2106 H   0  0  0  0  0  0  0  0  0  0  0  0
   -1.7396    1.5885    1.4402 H   0  0  0  0  0  0  0  0  0  0  0  0
   -4.1879    1.2178    2.4241 H   0  0  0  0  0  0  0  0  0  0  0  0
   -4.7174   -0.4628    1.9589 H   0  0  0  0  0  0  0  0  0  0  0  0
   -4.7056    0.0636   -0.2647 H   0  0  0  0  0  0  0  0  0  0  0  0
   -4.0969    1.7517    0.1422 H   0  0  0  0  0  0  0  0  0  0  0  0
   -2.1704    0.9814   -0.8947 H   0  0  0  0  0  0  0  0  0  0  0  0
   -3.4415   -1.5423   -0.4041 H   0  0  0  0  0  0  0  0  0  0  0  0
   -2.2331   -1.1123   -1.4936 H   0  0  0  0  0  0  0  0  0  0  0  0
    3.4640    0.5455    1.6586 H   0  0  0  0  0  0  0  0  0  0  0  0
    2.9556    1.3688    0.0582 H   0  0  0  0  0  0  0  0  0  0  0  0
  1  2  1  0
  2  3  1  0
  3  4  1  0
  4  5  1  0
  5  6  1  0
  6  7  2  0
  6  8  1  0
  8  9  1  0
  9 10  1  0
 10 11  1  0
 11 12  1  0
 12 13  1  0
  4 14  1  0
 14  2  1  0
 12  8  1  0
  1 15  1  0
  1 16  1  0
  1 17  1  0
  3 18  1  0
  3 19  1  0
  4 20  1  0
  5 21  1  0
  8 22  1  1
 10 23  1  0
 10 24  1  0
 11 25  1  0
 11 26  1  0
 12 27  1  6
 13 28  1  0
 13 29  1  0
 14 30  1  0
 14 31  1  0
M  END
$$$$

     RDKit          3D

 31 32  0  0  0  0  0  0  0  0999 V2000
    4.7421    0.3110    0.8319 C   0  0  0  0  0  0  0  0  0  0  0  0
    3.7652   -0.1781   -0.1172 N   0  0  0  0  0  0  0  0  0  0  0  0
    2.8769    0.8404   -0.6480 C   0  0  0  0  0  0  0  0  0  0  0  0
    1.8022   -0.2454   -0.7022 C   0  0  0  0  0  0  0  0  0  0  0  0
    0.4838    0.2049   -0.3676 N   0  0  0  0  0  0  0  0  0  0  0  0
   -0.6842   -0.0839   -1.1278 C   0  0  0  0  0  0  0  0  0  0  0  0
   -0.5251   -0.7849   -2.1618 O   0  0  0  0  0  0  0  0  0  0  0  0
   -2.0349    0.4133   -0.7300 C   0  0  2  0  0  0  0  0  0  0  0  0
   -1.8933    1.1504    0.4411 O   0  0  0  0  0  0  0  0  0  0  0  0
   -3.1496    1.2187    1.0243 C   0  0  0  0  0  0  0  0  0  0  0  0
   -3.8886   -0.0292    0.6446 C   0  0  0  0  0  0  0  0  0  0  0  0
   -2.9733   -0.6878   -0.3669 C   0  0  2  0  0  0  0  0  0  0  0  0
   -2.3151   -1.8432    0.1879 N   0  0  0  0  0  0  0  0  0  0  0  0
    2.5967   -0.7958    0.4852 C   0  0  0  0  0  0  0  0  0  0  0  0
    4.4926    1.3299    1.2047 H   0  0  0  0  0  0  0  0  0  0  0  0
    4.9294   -0.3934    1.6654 H   0  0  0  0  0  0  0  0  0  0  0  0
    5.7002    0.4117    0.2755 H   0  0  0  0  0  0  0  0  0  0  0  0
    2.6093    1.6370    0.0785 H   0  0  0  0  0  0  0  0  0  0  0  0
    3.1923    1.2030   -1.6492 H   0  0  0  0  0  0  0  0  0  0  0  0
    1.9104   -0.8502   -1.6021 H   0  0  0  0  0  0  0  0  0  0  0  0
    0.3693    0.7843    0.4915 H   0  0  0  0  0  0  0  0  0  0  0  0
   -2.4404    1.0863   -1.4935 H   0  0  0  0  0  0  0  0  0  0  0  0
   -3.1137    1.3086    2.1276 H   0  0  0  0  0  0  0  0  0  0  0  0
   -3.7054    2.0823    0.6012 H   0  0  0  0  0  0  0  0  0  0  0  0
   -3.9745   -0.7333    1.5024 H   0  0  0  0  0  0  0  0  0  0  0  0
   -4.8828    0.1801    0.1955 H   0  0  0  0  0  0  0  0  0  0  0  0
   -3.5652   -0.9413   -1.2790 H   0  0  0  0  0  0  0  0  0  0  0  0
   -2.8979   -2.6830   -0.0591 H   0  0  0  0  0  0  0  0  0  0  0  0
   -2.3855   -1.7671    1.2419 H   0  0  0  0  0  0  0  0  0  0  0  0
    2.6216   -1.8830    0.5598 H   0  0  0  0  0  0  0  0  0  0  0  0
    2.3376   -0.2624    1.4136 H   0  0  0  0  0  0  0  0  0  0  0  0
  1  2  1  0
  2  3  1  0
  3  4  1  0
  4  5  1  0
  5  6  1  0
  6  7  2  0
  6  8  1  0
  8  9  1  0
  9 10  1  0
 10 11  1  0
 11 12  1  0
 12 13  1  0
  4 14  1  0
 14  2  1  0
 12  8  1  0
  1 15  1  0
  1 16  1  0
  1 17  1  0
  3 18  1  0
  3 19  1  0
  4 20  1  0
  5 21  1  0
  8 22  1  6
 10 23  1  0
 10 24  1  0
 11 25  1  0
 11 26  1  0
 12 27  1  6
 13 28  1  0
 13 29  1  0
 14 30  1  0
 14 31  1  0
M  END
$$$$
