
     RDKit          3D

 30 29  0  0  0  0  0  0  0  0999 V2000
    4.7478    0.3921   -0.2188 C   0  0  0  0  0  0  0  0  0  0  0  0
    3.8073    0.1613    0.9030 C   0  0  0  0  0  0  0  0  0  0  0  0
    2.5834   -0.4625    0.6364 O   0  0  0  0  0  0  0  0  0  0  0  0
    1.8321   -0.1602   -0.4995 C   0  0  0  0  0  0  0  0  0  0  0  0
    2.3483    0.6351   -1.3313 O   0  0  0  0  0  0  0  0  0  0  0  0
    0.4676   -0.6858   -0.7904 C   0  0  0  0  0  0  0  0  0  0  0  0
   -0.4508   -0.0834    0.2191 N   0  0  0  0  0  0  0  0  0  0  0  0
   -1.7547   -0.5127   -0.2608 C   0  0  1  0  0  0  0  0  0  0  0  0
   -1.9010   -1.9876   -0.2614 C   0  0  0  0  0  0  0  0  0  0  0  0
   -2.9103    0.2016    0.4143 C   0  0  1  0  0  0  0  0  0  0  0  0
   -3.1222    0.0013    1.7615 O   0  0  0  0  0  0  0  0  0  0  0  0
   -2.6111    1.6976    0.1858 C   0  0  0  0  0  0  0  0  0  0  0  0
   -3.6874    2.4559    0.6175 O   0  0  0  0  0  0  0  0  0  0  0  0
    5.7244    0.6757    0.2691 H   0  0  0  0  0  0  0  0  0  0  0  0
    4.5075    1.3247   -0.7972 H   0  0  0  0  0  0  0  0  0  0  0  0
    4.9940   -0.4581   -0.8395 H   0  0  0  0  0  0  0  0  0  0  0  0
    4.3838   -0.5811    1.5994 H   0  0  0  0  0  0  0  0  0  0  0  0
    3.7287    1.0533    1.5510 H   0  0  0  0  0  0  0  0  0  0  0  0
    0.3318   -1.6762   -0.9149 H   0  0  0  0  0  0  0  0  0  0  0  0
    0.1512   -0.0546   -1.7031 H   0  0  0  0  0  0  0  0  0  0  0  0
   -0.2977   -0.7138    1.1049 H   0  0  0  0  0  0  0  0  0  0  0  0
   -1.8589   -0.1939   -1.3506 H   0  0  0  0  0  0  0  0  0  0  0  0
   -2.9950   -2.2170   -0.3582 H   0  0  0  0  0  0  0  0  0  0  0  0
   -1.4629   -2.4741    0.6463 H   0  0  0  0  0  0  0  0  0  0  0  0
   -1.4373   -2.4349   -1.1611 H   0  0  0  0  0  0  0  0  0  0  0  0
   -3.8463    0.0015   -0.1382 H   0  0  0  0  0  0  0  0  0  0  0  0
   -3.4526   -0.9573    1.8366 H   0  0  0  0  0  0  0  0  0  0  0  0
   -2.4015    1.8560   -0.8456 H   0  0  0  0  0  0  0  0  0  0  0  0
   -1.6978    1.9351    0.8294 H   0  0  0  0  0  0  0  0  0  0  0  0
   -3.7204    3.2621    0.0398 H   0  0  0  0  0  0  0  0  0  0  0  0
  1  2  1  0
  2  3  1  0
  3  4  1  0
  4  5  2  0
  4  6  1  0
  6  7  1  0
  7  8  1  0
  8  9  1  0
  8 10  1  0
 10 11  1  0
 10 12  1  0
 12 13  1  0
  1 14  1  0
  1 15  1  0
  1 16  1  0
  2 17  1  0
  2 18  1  0
  6 19  1  0
  6 20  1  0
  7 21  1  0
  8 22  1  6
  9 23  1  0
  9 24  1  0
  9 25  1  0
 10 26  1  6
 11 27  1  0
 12 28  1  0
 12 29  1  0
 13 30  1  0
M  END
$$$$

     RDKit          3D

 30 29  0  0  0  0  0  0  0  0999 V2000
    4.8575   -0.3174    0.1921 C   0  0  0  0  0  0  0  0  0  0  0  0
    4.0098   -0.4506   -1.0421 C   0  0  0  0  0  0  0  0  0  0  0  0
    2.8782    0.4051   -1.0515 O   0  0  0  0  0  0  0  0  0  0  0  0
    1.8412    0.3271   -0.1377 C   0  0  0  0  0  0  0  0  0  0  0  0
    1.9133   -0.5573    0.7451 O   0  0  0  0  0  0  0  0  0  0  0  0
    0.7376    1.2526   -0.2492 C   0  0  0  0  0  0  0  0  0  0  0  0
   -0.4566    1.0731    0.4335 N   0  0  0  0  0  0  0  0  0  0  0  0
   -1.3938    0.1032    0.0946 C   0  0  1  0  0  0  0  0  0  0  0  0
   -0.9541   -1.2998    0.2355 C   0  0  0  0  0  0  0  0  0  0  0  0
   -2.7306    0.4211    0.7178 C   0  0  1  0  0  0  0  0  0  0  0  0
   -3.0985    1.6752    0.2141 O   0  0  0  0  0  0  0  0  0  0  0  0
   -3.8088   -0.5469    0.3257 C   0  0  0  0  0  0  0  0  0  0  0  0
   -5.0191   -0.1002    0.8993 O   0  0  0  0  0  0  0  0  0  0  0  0
    4.6847   -1.1849    0.8888 H   0  0  0  0  0  0  0  0  0  0  0  0
    4.5019    0.5892    0.7419 H   0  0  0  0  0  0  0  0  0  0  0  0
    5.9339   -0.2529   -0.0751 H   0  0  0  0  0  0  0  0  0  0  0  0
    4.6403   -0.2268   -1.9213 H   0  0  0  0  0  0  0  0  0  0  0  0
    3.6630   -1.5151   -1.1546 H   0  0  0  0  0  0  0  0  0  0  0  0
    0.5145    1.4832   -1.3354 H   0  0  0  0  0  0  0  0  0  0  0  0
    1.1547    2.2643    0.0993 H   0  0  0  0  0  0  0  0  0  0  0  0
   -0.7152    1.7678    1.1553 H   0  0  0  0  0  0  0  0  0  0  0  0
   -1.5905    0.2424   -1.0373 H   0  0  0  0  0  0  0  0  0  0  0  0
   -0.5456   -1.5086    1.2359 H   0  0  0  0  0  0  0  0  0  0  0  0
   -1.7747   -2.0397   -0.0039 H   0  0  0  0  0  0  0  0  0  0  0  0
   -0.1926   -1.5219   -0.5398 H   0  0  0  0  0  0  0  0  0  0  0  0
   -2.6626    0.4836    1.7904 H   0  0  0  0  0  0  0  0  0  0  0  0
   -3.4204    2.2995    0.9069 H   0  0  0  0  0  0  0  0  0  0  0  0
   -3.6624   -1.5803    0.6863 H   0  0  0  0  0  0  0  0  0  0  0  0
   -3.9752   -0.5586   -0.7692 H   0  0  0  0  0  0  0  0  0  0  0  0
   -5.3299   -0.7263    1.6217 H   0  0  0  0  0  0  0  0  0  0  0  0
  1  2  1  0
  2  3  1  0
  3  4  1  0
  4  5  2  0
  4  6  1  0
  6  7  1  0
  7  8  1  0
  8  9  1  0
  8 10  1  0
 10 11  1  0
 10 12  1  0
 12 13  1  0
  1 14  1  0
  1 15  1  0
  1 16  1  0
  2 17  1  0
  2 18  1  0
  6 19  1  0
  6 20  1  0
  7 21  1  0
  8 22  1  6
  9 23  1  0
  9 24  1  0
  9 25  1  0
 10 26  1  1
 11 27  1  0
 12 28  1  0
 12 29  1  0
 13 30  1  0
M  END
$$$$

     RDKit          3D

 30 29  0  0  0  0  0  0  0  0999 V2000
    3.8341   -0.1806    1.0720 C   0  0  0  0  0  0  0  0  0  0  0  0
    3.9973   -1.2505    0.0082 C   0  0  0  0  0  0  0  0  0  0  0  0
    2.9739   -0.9981   -0.9708 O   0  0  0  0  0  0  0  0  0  0  0  0
    1.6398   -1.0119   -0.6533 C   0  0  0  0  0  0  0  0  0  0  0  0
    1.3431   -1.2575    0.5488 O   0  0  0  0  0  0  0  0  0  0  0  0
    0.5871   -0.7438   -1.7025 C   0  0  0  0  0  0  0  0  0  0  0  0
   -0.7282   -0.8023   -1.2056 N   0  0  0  0  0  0  0  0  0  0  0  0
   -1.1499    0.2198   -0.3004 C   0  0  1  0  0  0  0  0  0  0  0  0
   -1.1740    1.5926   -0.8750 C   0  0  0  0  0  0  0  0  0  0  0  0
   -2.5571   -0.0808    0.2437 C   0  0  1  0  0  0  0  0  0  0  0  0
   -2.5369   -1.3225    0.9010 O   0  0  0  0  0  0  0  0  0  0  0  0
   -2.9693    0.9420    1.2698 C   0  0  0  0  0  0  0  0  0  0  0  0
   -3.0709    2.2218    0.8006 O   0  0  0  0  0  0  0  0  0  0  0  0
    3.2427   -0.5301    1.9392 H   0  0  0  0  0  0  0  0  0  0  0  0
    4.8296    0.1794    1.4250 H   0  0  0  0  0  0  0  0  0  0  0  0
    3.2902    0.7100    0.6741 H   0  0  0  0  0  0  0  0  0  0  0  0
    3.7542   -2.2182    0.4716 H   0  0  0  0  0  0  0  0  0  0  0  0
    4.9919   -1.2000   -0.4350 H   0  0  0  0  0  0  0  0  0  0  0  0
    0.8136    0.2390   -2.0987 H   0  0  0  0  0  0  0  0  0  0  0  0
    0.7129   -1.4974   -2.5140 H   0  0  0  0  0  0  0  0  0  0  0  0
   -1.4708   -1.1224   -1.8329 H   0  0  0  0  0  0  0  0  0  0  0  0
   -0.4530    0.2174    0.5684 H   0  0  0  0  0  0  0  0  0  0  0  0
   -0.5324    1.7014   -1.7866 H   0  0  0  0  0  0  0  0  0  0  0  0
   -2.2037    1.7688   -1.2769 H   0  0  0  0  0  0  0  0  0  0  0  0
   -0.9898    2.4060   -0.1481 H   0  0  0  0  0  0  0  0  0  0  0  0
   -3.3186   -0.1021   -0.5507 H   0  0  0  0  0  0  0  0  0  0  0  0
   -2.7407   -2.0232    0.2245 H   0  0  0  0  0  0  0  0  0  0  0  0
   -2.2005    0.9194    2.0910 H   0  0  0  0  0  0  0  0  0  0  0  0
   -3.9497    0.6129    1.6783 H   0  0  0  0  0  0  0  0  0  0  0  0
   -3.9648    2.6108    1.0540 H   0  0  0  0  0  0  0  0  0  0  0  0
  1  2  1  0
  2  3  1  0
  3  4  1  0
  4  5  2  0
  4  6  1  0
  6  7  1  0
  7  8  1  0
  8  9  1  0
  8 10  1  0
 10 11  1  0
 10 12  1  0
 12 13  1  0
  1 14  1  0
  1 15  1  0
  1 16  1  0
  2 17  1  0
  2 18  1  0
  6 19  1  0
  6 20  1  0
  7 21  1  0
  8 22  1  1
  9 23  1  0
  9 24  1  0
  9 25  1  0
 10 26  1  6
 11 27  1  0
 12 28  1  0
 12 29  1  0
 13 30  1  0
M  END
$$$$

     RDKit          3D

 30 29  0  0  0  0  0  0  0  0999 V2000
    4.8007   -0.0030   -0.5786 C   0  0  0  0  0  0  0  0  0  0  0  0
    4.3682    0.1650    0.8685 C   0  0  0  0  0  0  0  0  0  0  0  0
    3.0946   -0.3947    1.1057 O   0  0  0  0  0  0  0  0  0  0  0  0
    1.9398    0.0018    0.4645 C   0  0  0  0  0  0  0  0  0  0  0  0
    2.0382    0.9288   -0.3909 O   0  0  0  0  0  0  0  0  0  0  0  0
    0.6715   -0.6693    0.8073 C   0  0  0  0  0  0  0  0  0  0  0  0
   -0.4008   -0.0897    0.0111 N   0  0  0  0  0  0  0  0  0  0  0  0
   -1.6573   -0.7127    0.3043 C   0  0  1  0  0  0  0  0  0  0  0  0
   -2.1290   -0.5230    1.7234 C   0  0  0  0  0  0  0  0  0  0  0  0
   -2.7146   -0.2395   -0.6349 C   0  0  1  0  0  0  0  0  0  0  0  0
   -3.9204   -0.8976   -0.2930 O   0  0  0  0  0  0  0  0  0  0  0  0
   -2.9567    1.2357   -0.4222 C   0  0  0  0  0  0  0  0  0  0  0  0
   -4.0230    1.6633   -1.2334 O   0  0  0  0  0  0  0  0  0  0  0  0
    4.5029    0.9055   -1.1375 H   0  0  0  0  0  0  0  0  0  0  0  0
    4.3241   -0.9009   -1.0393 H   0  0  0  0  0  0  0  0  0  0  0  0
    5.9046   -0.0782   -0.6192 H   0  0  0  0  0  0  0  0  0  0  0  0
    4.4158    1.2416    1.1419 H   0  0  0  0  0  0  0  0  0  0  0  0
    5.0922   -0.3669    1.5222 H   0  0  0  0  0  0  0  0  0  0  0  0
    0.7472   -1.7302    0.5486 H   0  0  0  0  0  0  0  0  0  0  0  0
    0.5187   -0.5616    1.8844 H   0  0  0  0  0  0  0  0  0  0  0  0
   -0.3923    0.9340    0.0205 H   0  0  0  0  0  0  0  0  0  0  0  0
   -1.5186   -1.8161    0.1009 H   0  0  0  0  0  0  0  0  0  0  0  0
   -1.5147    0.1783    2.3050 H   0  0  0  0  0  0  0  0  0  0  0  0
   -2.1125   -1.5011    2.2822 H   0  0  0  0  0  0  0  0  0  0  0  0
   -3.1955   -0.1991    1.7630 H   0  0  0  0  0  0  0  0  0  0  0  0
   -2.4957   -0.4518   -1.6839 H   0  0  0  0  0  0  0  0  0  0  0  0
   -3.7525   -1.8514   -0.4554 H   0  0  0  0  0  0  0  0  0  0  0  0
   -3.1903    1.4814    0.6151 H   0  0  0  0  0  0  0  0  0  0  0  0
   -2.0356    1.7673   -0.7887 H   0  0  0  0  0  0  0  0  0  0  0  0
   -4.4090    2.4841   -0.8478 H   0  0  0  0  0  0  0  0  0  0  0  0
  1  2  1  0
  2  3  1  0
  3  4  1  0
  4  5  2  0
  4  6  1  0
  6  7  1  0
  7  8  1  0
  8  9  1  0
  8 10  1  0
 10 11  1  0
 10 12  1  0
 12 13  1  0
  1 14  1  0
  1 15  1  0
  1 16  1  0
  2 17  1  0
  2 18  1  0
  6 19  1  0
  6 20  1  0
  7 21  1  0
  8 22  1  6
  9 23  1  0
  9 24  1  0
  9 25  1  0
 10 26  1  6
 11 27  1  0
 12 28  1  0
 12 29  1  0
 13 30  1  0
M  END
$$$$

     RDKit          3D

 30 29  0  0  0  0  0  0  0  0999 V2000
    4.7367    1.0578    0.1089 C   0  0  0  0  0  0  0  0  0  0  0  0
    4.0617   -0.2921    0.2630 C   0  0  0  0  0  0  0  0  0  0  0  0
    2.7320   -0.3672   -0.1673 O   0  0  0  0  0  0  0  0  0  0  0  0
    1.7708   -1.0888    0.4099 C   0  0  0  0  0  0  0  0  0  0  0  0
    1.9967   -1.7331    1.4821 O   0  0  0  0  0  0  0  0  0  0  0  0
    0.3695   -1.1190   -0.1667 C   0  0  0  0  0  0  0  0  0  0  0  0
   -0.1613    0.1552    0.1107 N   0  0  0  0  0  0  0  0  0  0  0  0
   -1.5085    0.4861   -0.1285 C   0  0  1  0  0  0  0  0  0  0  0  0
   -1.7652    0.3422   -1.6684 C   0  0  0  0  0  0  0  0  0  0  0  0
   -2.4903   -0.4584    0.5038 C   0  0  1  0  0  0  0  0  0  0  0  0
   -2.1026   -0.9022    1.7855 O   0  0  0  0  0  0  0  0  0  0  0  0
   -3.6889    0.4612    0.9632 C   0  0  0  0  0  0  0  0  0  0  0  0
   -4.2780    1.1113   -0.0585 O   0  0  0  0  0  0  0  0  0  0  0  0
    5.8462    0.8551    0.0030 H   0  0  0  0  0  0  0  0  0  0  0  0
    4.3609    1.6874   -0.6652 H   0  0  0  0  0  0  0  0  0  0  0  0
    4.6130    1.6333    1.0894 H   0  0  0  0  0  0  0  0  0  0  0  0
    4.2818   -0.7795    1.2184 H   0  0  0  0  0  0  0  0  0  0  0  0
    4.6293   -0.9218   -0.5624 H   0  0  0  0  0  0  0  0  0  0  0  0
   -0.1441   -1.9387    0.4159 H   0  0  0  0  0  0  0  0  0  0  0  0
    0.3981   -1.4678   -1.1856 H   0  0  0  0  0  0  0  0  0  0  0  0
    0.4298    0.8632   -0.4304 H   0  0  0  0  0  0  0  0  0  0  0  0
   -1.7284    1.5129    0.0927 H   0  0  0  0  0  0  0  0  0  0  0  0
   -2.7074    0.8289   -1.8727 H   0  0  0  0  0  0  0  0  0  0  0  0
   -1.9205   -0.7446   -1.8749 H   0  0  0  0  0  0  0  0  0  0  0  0
   -0.9623    0.7614   -2.2454 H   0  0  0  0  0  0  0  0  0  0  0  0
   -2.8758   -1.2089   -0.1347 H   0  0  0  0  0  0  0  0  0  0  0  0
   -2.2317   -1.9206    1.7531 H   0  0  0  0  0  0  0  0  0  0  0  0
   -3.0949    1.2170    1.5794 H   0  0  0  0  0  0  0  0  0  0  0  0
   -4.2689   -0.1341    1.6489 H   0  0  0  0  0  0  0  0  0  0  0  0
   -4.2976    2.1038    0.0661 H   0  0  0  0  0  0  0  0  0  0  0  0
  1  2  1  0
  2  3  1  0
  3  4  1  0
  4  5  2  0
  4  6  1  0
  6  7  1  0
  7  8  1  0
  8  9  1  0
  8 10  1  0
 10 11  1  0
 10 12  1  0
 12 13  1  0
  1 14  1  0
  1 15  1  0
  1 16  1  0
  2 17  1  0
  2 18  1  0
  6 19  1  0
  6 20  1  0
  7 21  1  0
  8 22  1  1
  9 23  1  0
  9 24  1  0
  9 25  1  0
 10 26  1  6
 11 27  1  0
 12 28  1  0
 12 29  1  0
 13 30  1  0
M  END
$$$$

     RDKit          3D

 30 29  0  0  0  0  0  0  0  0999 V2000
    5.5401   -0.2682   -0.3840 C   0  0  0  0  0  0  0  0  0  0  0  0
    4.3509    0.5009   -0.9413 C   0  0  0  0  0  0  0  0  0  0  0  0
    3.1787   -0.0610   -0.4398 O   0  0  0  0  0  0  0  0  0  0  0  0
    1.9042    0.3679   -0.7281 C   0  0  0  0  0  0  0  0  0  0  0  0
    1.7380    1.3307   -1.5000 O   0  0  0  0  0  0  0  0  0  0  0  0
    0.7471   -0.3336   -0.1047 C   0  0  0  0  0  0  0  0  0  0  0  0
   -0.4919    0.2251   -0.5069 N   0  0  0  0  0  0  0  0  0  0  0  0
   -1.6838   -0.3067    0.0344 C   0  0  1  0  0  0  0  0  0  0  0  0
   -1.7973   -0.1003    1.4984 C   0  0  0  0  0  0  0  0  0  0  0  0
   -2.8874    0.1391   -0.7658 C   0  0  1  0  0  0  0  0  0  0  0  0
   -2.7791   -0.3064   -2.0873 O   0  0  0  0  0  0  0  0  0  0  0  0
   -4.2011   -0.2338   -0.1863 C   0  0  0  0  0  0  0  0  0  0  0  0
   -4.3002    0.2452    1.1284 O   0  0  0  0  0  0  0  0  0  0  0  0
    6.1207   -0.7735   -1.1562 H   0  0  0  0  0  0  0  0  0  0  0  0
    5.2366   -1.0420    0.3506 H   0  0  0  0  0  0  0  0  0  0  0  0
    6.1604    0.4558    0.2058 H   0  0  0  0  0  0  0  0  0  0  0  0
    4.3963    0.3455   -2.0518 H   0  0  0  0  0  0  0  0  0  0  0  0
    4.4512    1.5991   -0.7817 H   0  0  0  0  0  0  0  0  0  0  0  0
    0.9002   -0.2707    0.9848 H   0  0  0  0  0  0  0  0  0  0  0  0
    0.7879   -1.4143   -0.4367 H   0  0  0  0  0  0  0  0  0  0  0  0
   -0.5180    1.2109   -0.7513 H   0  0  0  0  0  0  0  0  0  0  0  0
   -1.6406   -1.4284   -0.1331 H   0  0  0  0  0  0  0  0  0  0  0  0
   -2.0938    0.9598    1.7448 H   0  0  0  0  0  0  0  0  0  0  0  0
   -2.4590   -0.8244    2.0228 H   0  0  0  0  0  0  0  0  0  0  0  0
   -0.8061   -0.2330    1.9666 H   0  0  0  0  0  0  0  0  0  0  0  0
   -2.8565    1.2553   -0.8243 H   0  0  0  0  0  0  0  0  0  0  0  0
   -3.1786   -1.2348   -2.1065 H   0  0  0  0  0  0  0  0  0  0  0  0
   -4.9996    0.2803   -0.7635 H   0  0  0  0  0  0  0  0  0  0  0  0
   -4.4467   -1.3177   -0.2327 H   0  0  0  0  0  0  0  0  0  0  0  0
   -4.3725    1.2332    1.0485 H   0  0  0  0  0  0  0  0  0  0  0  0
  1  2  1  0
  2  3  1  0
  3  4  1  0
  4  5  2  0
  4  6  1  0
  6  7  1  0
  7  8  1  0
  8  9  1  0
  8 10  1  0
 10 11  1  0
 10 12  1  0
 12 13  1  0
  1 14  1  0
  1 15  1  0
  1 16  1  0
  2 17  1  0
  2 18  1  0
  6 19  1  0
  6 20  1  0
  7 21  1  0
  8 22  1  1
  9 23  1  0
  9 24  1  0
  9 25  1  0
 10 26  1  6
 11 27  1  0
 12 28  1  0
 12 29  1  0
 13 30  1  0
M  END
$$$$

     RDKit          3D

 30 29  0  0  0  0  0  0  0  0999 V2000
    4.5400    0.5391   -0.1836 C   0  0  0  0  0  0  0  0  0  0  0  0
    4.0931   -0.0246    1.1311 C   0  0  0  0  0  0  0  0  0  0  0  0
    2.7268    0.1292    1.3575 O   0  0  0  0  0  0  0  0  0  0  0  0
    1.7736   -0.4230    0.5110 C   0  0  0  0  0  0  0  0  0  0  0  0
    2.1258   -1.0851   -0.4950 O   0  0  0  0  0  0  0  0  0  0  0  0
    0.3066   -0.2076    0.8300 C   0  0  0  0  0  0  0  0  0  0  0  0
   -0.4299   -0.8597   -0.1677 N   0  0  0  0  0  0  0  0  0  0  0  0
   -1.8309   -0.8606   -0.1769 C   0  0  1  0  0  0  0  0  0  0  0  0
   -2.4576   -1.4542    1.0812 C   0  0  0  0  0  0  0  0  0  0  0  0
   -2.6079    0.1811   -0.8553 C   0  0  1  0  0  0  0  0  0  0  0  0
   -4.0061   -0.1261   -0.6550 O   0  0  0  0  0  0  0  0  0  0  0  0
   -2.4845    1.5974   -0.5413 C   0  0  0  0  0  0  0  0  0  0  0  0
   -1.3083    2.2474   -0.6843 O   0  0  0  0  0  0  0  0  0  0  0  0
    3.7577    0.5246   -0.9419 H   0  0  0  0  0  0  0  0  0  0  0  0
    4.8217    1.6145   -0.0036 H   0  0  0  0  0  0  0  0  0  0  0  0
    5.4343   -0.0356   -0.5498 H   0  0  0  0  0  0  0  0  0  0  0  0
    4.3140   -1.1239    1.1345 H   0  0  0  0  0  0  0  0  0  0  0  0
    4.6391    0.4959    1.9514 H   0  0  0  0  0  0  0  0  0  0  0  0
    0.2200   -0.6850    1.8462 H   0  0  0  0  0  0  0  0  0  0  0  0
    0.2227    0.8853    0.9054 H   0  0  0  0  0  0  0  0  0  0  0  0
   -0.0649   -0.6382   -1.1067 H   0  0  0  0  0  0  0  0  0  0  0  0
   -2.0285   -1.7919   -0.8946 H   0  0  0  0  0  0  0  0  0  0  0  0
   -3.4902   -1.7108    0.8338 H   0  0  0  0  0  0  0  0  0  0  0  0
   -1.9209   -2.4146    1.2715 H   0  0  0  0  0  0  0  0  0  0  0  0
   -2.3197   -0.8340    1.9632 H   0  0  0  0  0  0  0  0  0  0  0  0
   -2.5133    0.0307   -1.9768 H   0  0  0  0  0  0  0  0  0  0  0  0
   -4.1394   -1.0233   -1.0676 H   0  0  0  0  0  0  0  0  0  0  0  0
   -3.2405    2.1686   -1.1660 H   0  0  0  0  0  0  0  0  0  0  0  0
   -2.8467    1.8248    0.5108 H   0  0  0  0  0  0  0  0  0  0  0  0
   -1.2861    3.0595   -0.1527 H   0  0  0  0  0  0  0  0  0  0  0  0
  1  2  1  0
  2  3  1  0
  3  4  1  0
  4  5  2  0
  4  6  1  0
  6  7  1  0
  7  8  1  0
  8  9  1  0
  8 10  1  0
 10 11  1  0
 10 12  1  0
 12 13  1  0
  1 14  1  0
  1 15  1  0
  1 16  1  0
  2 17  1  0
  2 18  1  0
  6 19  1  0
  6 20  1  0
  7 21  1  0
  8 22  1  6
  9 23  1  0
  9 24  1  0
  9 25  1  0
 10 26  1  6
 11 27  1  0
 12 28  1  0
 12 29  1  0
 13 30  1  0
M  END
$$$$

     RDKit          3D

 30 29  0  0  0  0  0  0  0  0999 V2000
    5.2879   -0.2997    0.7137 C   0  0  0  0  0  0  0  0  0  0  0  0
    3.9989   -0.4396   -0.0649 C   0  0  0  0  0  0  0  0  0  0  0  0
    2.9391    0.2242    0.5971 O   0  0  0  0  0  0  0  0  0  0  0  0
    1.6569    0.2414    0.0785 C   0  0  0  0  0  0  0  0  0  0  0  0
    1.4423   -0.3475   -1.0028 O   0  0  0  0  0  0  0  0  0  0  0  0
    0.5293    0.9255    0.7471 C   0  0  0  0  0  0  0  0  0  0  0  0
   -0.6422    0.7911    0.0464 N   0  0  0  0  0  0  0  0  0  0  0  0
   -1.3333   -0.3937   -0.1043 C   0  0  1  0  0  0  0  0  0  0  0  0
   -1.8629   -1.0358    1.1321 C   0  0  0  0  0  0  0  0  0  0  0  0
   -2.5065   -0.1804   -1.0649 C   0  0  1  0  0  0  0  0  0  0  0  0
   -3.1752   -1.3806   -1.1984 O   0  0  0  0  0  0  0  0  0  0  0  0
   -3.4214    0.9106   -0.5528 C   0  0  0  0  0  0  0  0  0  0  0  0
   -4.4924    1.1196   -1.4182 O   0  0  0  0  0  0  0  0  0  0  0  0
    5.8432   -1.2466    0.7277 H   0  0  0  0  0  0  0  0  0  0  0  0
    5.0314   -0.0213    1.7581 H   0  0  0  0  0  0  0  0  0  0  0  0
    5.8810    0.5251    0.2565 H   0  0  0  0  0  0  0  0  0  0  0  0
    4.1700   -0.0550   -1.0833 H   0  0  0  0  0  0  0  0  0  0  0  0
    3.7698   -1.5377   -0.1181 H   0  0  0  0  0  0  0  0  0  0  0  0
    0.8178    2.0173    0.7884 H   0  0  0  0  0  0  0  0  0  0  0  0
    0.5348    0.5941    1.7930 H   0  0  0  0  0  0  0  0  0  0  0  0
   -0.8997    1.5616   -0.5673 H   0  0  0  0  0  0  0  0  0  0  0  0
   -0.6927   -1.1458   -0.6152 H   0  0  0  0  0  0  0  0  0  0  0  0
   -1.1372   -1.8017    1.4985 H   0  0  0  0  0  0  0  0  0  0  0  0
   -2.7829   -1.5945    0.8631 H   0  0  0  0  0  0  0  0  0  0  0  0
   -2.1044   -0.3597    1.9490 H   0  0  0  0  0  0  0  0  0  0  0  0
   -2.0963    0.1567   -2.0328 H   0  0  0  0  0  0  0  0  0  0  0  0
   -3.8919   -1.3368   -1.8554 H   0  0  0  0  0  0  0  0  0  0  0  0
   -3.8097    0.5957    0.4511 H   0  0  0  0  0  0  0  0  0  0  0  0
   -2.9074    1.8595   -0.4234 H   0  0  0  0  0  0  0  0  0  0  0  0
   -4.1464    1.6542   -2.1657 H   0  0  0  0  0  0  0  0  0  0  0  0
  1  2  1  0
  2  3  1  0
  3  4  1  0
  4  5  2  0
  4  6  1  0
  6  7  1  0
  7  8  1  0
  8  9  1  0
  8 10  1  0
 10 11  1  0
 10 12  1  0
 12 13  1  0
  1 14  1  0
  1 15  1  0
  1 16  1  0
  2 17  1  0
  2 18  1  0
  6 19  1  0
  6 20  1  0
  7 21  1  0
  8 22  1  6
  9 23  1  0
  9 24  1  0
  9 25  1  0
 10 26  1  6
 11 27  1  0
 12 28  1  0
 12 29  1  0
 13 30  1  0
M  END
$$$$
