
     RDKit          3D

 28 27  0  0  0  0  0  0  0  0999 V2000
   -3.2133    2.1831    0.5361 C   0  0  0  0  0  0  0  0  0  0  0  0
   -3.1950    1.0204   -0.4474 C   0  0  0  0  0  0  0  0  0  0  0  0
   -1.8687    0.6184   -0.7799 N   0  0  0  0  0  0  0  0  0  0  0  0
   -1.1434   -0.0592    0.2539 C   0  0  1  0  0  0  0  0  0  0  0  0
   -1.8128   -1.3814    0.5856 C   0  0  0  0  0  0  0  0  0  0  0  0
    0.2428   -0.3306   -0.3009 C   0  0  0  0  0  0  0  0  0  0  0  0
    0.6171    0.3731   -1.2629 O   0  0  0  0  0  0  0  0  0  0  0  0
    1.1302   -1.2719    0.2787 N   0  0  0  0  0  0  0  0  0  0  0  0
    2.2359   -1.4214   -0.4338 O   0  0  0  0  0  0  0  0  0  0  0  0
    3.4108   -1.4479    0.2309 C   0  0  0  0  0  0  0  0  0  0  0  0
    4.3579   -0.4748   -0.4445 C   0  0  0  0  0  0  0  0  0  0  0  0
    4.0275    0.9280   -0.4339 N   0  0  0  0  0  0  0  0  0  0  0  0
    5.4265   -0.7689   -0.9750 O   0  0  0  0  0  0  0  0  0  0  0  0
   -4.0484    2.0960    1.2408 H   0  0  0  0  0  0  0  0  0  0  0  0
   -3.3690    3.1603   -0.0159 H   0  0  0  0  0  0  0  0  0  0  0  0
   -2.2542    2.2428    1.0576 H   0  0  0  0  0  0  0  0  0  0  0  0
   -3.8487    0.1941   -0.0866 H   0  0  0  0  0  0  0  0  0  0  0  0
   -3.6719    1.3922   -1.3736 H   0  0  0  0  0  0  0  0  0  0  0  0
   -1.8914    0.0112   -1.6274 H   0  0  0  0  0  0  0  0  0  0  0  0
   -1.0721    0.5046    1.1886 H   0  0  0  0  0  0  0  0  0  0  0  0
   -2.7943   -1.1388    1.0382 H   0  0  0  0  0  0  0  0  0  0  0  0
   -1.2347   -1.9550    1.3184 H   0  0  0  0  0  0  0  0  0  0  0  0
   -1.9959   -1.9453   -0.3376 H   0  0  0  0  0  0  0  0  0  0  0  0
    0.8290   -1.7357    1.1391 H   0  0  0  0  0  0  0  0  0  0  0  0
    3.9363   -2.4495    0.0711 H   0  0  0  0  0  0  0  0  0  0  0  0
    3.2841   -1.2597    1.2935 H   0  0  0  0  0  0  0  0  0  0  0  0
    4.1959    1.5125    0.4190 H   0  0  0  0  0  0  0  0  0  0  0  0
    3.7199    1.4034   -1.2779 H   0  0  0  0  0  0  0  0  0  0  0  0
  1  2  1  0
  2  3  1  0
  3  4  1  0
  4  5  1  0
  4  6  1  0
  6  7  2  0
  6  8  1  0
  8  9  1  0
  9 10  1  0
 10 11  1  0
 11 12  1  0
 11 13  2  0
  1 14  1  0
  1 15  1  0
  1 16  1  0
  2 17  1  0
  2 18  1  0
  3 19  1  0
  4 20  1  1
  5 21  1  0
  5 22  1  0
  5 23  1  0
  8 24  1  0
 10 25  1  0
 10 26  1  0
 12 27  1  0
 12 28  1  0
M  END
$$$$

     RDKit          3D

 28 27  0  0  0  0  0  0  0  0999 V2000
   -3.8840   -1.2602    0.3128 C   0  0  0  0  0  0  0  0  0  0  0  0
   -3.5556    0.1342    0.7954 C   0  0  0  0  0  0  0  0  0  0  0  0
   -2.1724    0.1997    1.1042 N   0  0  0  0  0  0  0  0  0  0  0  0
   -1.2711    0.0861   -0.0127 C   0  0  1  0  0  0  0  0  0  0  0  0
   -1.4792    1.2618   -0.9583 C   0  0  0  0  0  0  0  0  0  0  0  0
    0.1125    0.1218    0.4814 C   0  0  0  0  0  0  0  0  0  0  0  0
    0.3792    0.5853    1.6087 O   0  0  0  0  0  0  0  0  0  0  0  0
    1.1631   -0.3764   -0.3214 N   0  0  0  0  0  0  0  0  0  0  0  0
    2.4531   -0.3595    0.1053 O   0  0  0  0  0  0  0  0  0  0  0  0
    3.3153    0.0406   -0.9327 C   0  0  0  0  0  0  0  0  0  0  0  0
    4.7162    0.0641   -0.4749 C   0  0  0  0  0  0  0  0  0  0  0  0
    5.0437   -0.3759    0.8136 N   0  0  0  0  0  0  0  0  0  0  0  0
    5.6729    0.4738   -1.2168 O   0  0  0  0  0  0  0  0  0  0  0  0
   -3.3394   -1.4583   -0.6377 H   0  0  0  0  0  0  0  0  0  0  0  0
   -4.9872   -1.4093    0.1582 H   0  0  0  0  0  0  0  0  0  0  0  0
   -3.5474   -1.9723    1.0822 H   0  0  0  0  0  0  0  0  0  0  0  0
   -4.1334    0.2886    1.7519 H   0  0  0  0  0  0  0  0  0  0  0  0
   -3.9423    0.9256    0.1184 H   0  0  0  0  0  0  0  0  0  0  0  0
   -1.8892    0.8143    1.8702 H   0  0  0  0  0  0  0  0  0  0  0  0
   -1.4665   -0.8320   -0.5610 H   0  0  0  0  0  0  0  0  0  0  0  0
   -2.4191    1.0992   -1.5013 H   0  0  0  0  0  0  0  0  0  0  0  0
   -0.6236    1.4606   -1.5848 H   0  0  0  0  0  0  0  0  0  0  0  0
   -1.6163    2.1435   -0.2843 H   0  0  0  0  0  0  0  0  0  0  0  0
    0.9678   -0.7852   -1.2644 H   0  0  0  0  0  0  0  0  0  0  0  0
    2.9393    0.9969   -1.3606 H   0  0  0  0  0  0  0  0  0  0  0  0
    3.2117   -0.7630   -1.7337 H   0  0  0  0  0  0  0  0  0  0  0  0
    4.3172   -0.7687    1.4707 H   0  0  0  0  0  0  0  0  0  0  0  0
    6.0345   -0.3350    1.1838 H   0  0  0  0  0  0  0  0  0  0  0  0
  1  2  1  0
  2  3  1  0
  3  4  1  0
  4  5  1  0
  4  6  1  0
  6  7  2  0
  6  8  1  0
  8  9  1  0
  9 10  1  0
 10 11  1  0
 11 12  1  0
 11 13  2  0
  1 14  1  0
  1 15  1  0
  1 16  1  0
  2 17  1  0
  2 18  1  0
  3 19  1  0
  4 20  1  6
  5 21  1  0
  5 22  1  0
  5 23  1  0
  8 24  1  0
 10 25  1  0
 10 26  1  0
 12 27  1  0
 12 28  1  0
M  END
$$$$

     RDKit          3D

 28 27  0  0  0  0  0  0  0  0999 V2000
   -4.2917    0.0838    0.4781 C   0  0  0  0  0  0  0  0  0  0  0  0
   -3.4367    0.9759   -0.3852 C   0  0  0  0  0  0  0  0  0  0  0  0
   -2.1096    1.0040    0.1133 N   0  0  0  0  0  0  0  0  0  0  0  0
   -1.3426   -0.1833    0.0099 C   0  0  1  0  0  0  0  0  0  0  0  0
   -1.0793   -0.6779   -1.3797 C   0  0  0  0  0  0  0  0  0  0  0  0
   -0.0077    0.0502    0.6840 C   0  0  0  0  0  0  0  0  0  0  0  0
    0.1878    1.1808    1.2104 O   0  0  0  0  0  0  0  0  0  0  0  0
    0.9357   -0.9988    0.6887 N   0  0  0  0  0  0  0  0  0  0  0  0
    2.1325   -0.8191    1.2773 O   0  0  0  0  0  0  0  0  0  0  0  0
    3.1002   -0.6793    0.2622 C   0  0  0  0  0  0  0  0  0  0  0  0
    4.4630   -0.4992    0.8072 C   0  0  0  0  0  0  0  0  0  0  0  0
    5.5879   -0.3649   -0.0515 N   0  0  0  0  0  0  0  0  0  0  0  0
    4.7047   -0.4534    2.0470 O   0  0  0  0  0  0  0  0  0  0  0  0
   -3.8536   -0.9311    0.5313 H   0  0  0  0  0  0  0  0  0  0  0  0
   -5.3077    0.0267    0.0149 H   0  0  0  0  0  0  0  0  0  0  0  0
   -4.4005    0.4740    1.4892 H   0  0  0  0  0  0  0  0  0  0  0  0
   -3.5180    0.5987   -1.4344 H   0  0  0  0  0  0  0  0  0  0  0  0
   -3.9033    1.9902   -0.4062 H   0  0  0  0  0  0  0  0  0  0  0  0
   -1.6056    1.8988   -0.0357 H   0  0  0  0  0  0  0  0  0  0  0  0
   -1.8487   -0.9993    0.5773 H   0  0  0  0  0  0  0  0  0  0  0  0
   -0.0830   -0.4015   -1.7235 H   0  0  0  0  0  0  0  0  0  0  0  0
   -1.8513   -0.3621   -2.1071 H   0  0  0  0  0  0  0  0  0  0  0  0
   -1.1312   -1.8042   -1.3963 H   0  0  0  0  0  0  0  0  0  0  0  0
    0.7149   -1.9022    0.2377 H   0  0  0  0  0  0  0  0  0  0  0  0
    2.8530    0.2534   -0.3012 H   0  0  0  0  0  0  0  0  0  0  0  0
    3.0590   -1.5317   -0.4356 H   0  0  0  0  0  0  0  0  0  0  0  0
    5.6997   -0.9832   -0.8748 H   0  0  0  0  0  0  0  0  0  0  0  0
    6.3322    0.3444    0.1030 H   0  0  0  0  0  0  0  0  0  0  0  0
  1  2  1  0
  2  3  1  0
  3  4  1  0
  4  5  1  0
  4  6  1  0
  6  7  2  0
  6  8  1  0
  8  9  1  0
  9 10  1  0
 10 11  1  0
 11 12  1  0
 11 13  2  0
  1 14  1  0
  1 15  1  0
  1 16  1  0
  2 17  1  0
  2 18  1  0
  3 19  1  0
  4 20  1  1
  5 21  1  0
  5 22  1  0
  5 23  1  0
  8 24  1  0
 10 25  1  0
 10 26  1  0
 12 27  1  0
 12 28  1  0
M  END
$$$$

     RDKit          3D

 28 27  0  0  0  0  0  0  0  0999 V2000
   -3.7573    2.0946   -0.3965 C   0  0  0  0  0  0  0  0  0  0  0  0
   -2.7559    1.2223    0.2711 C   0  0  0  0  0  0  0  0  0  0  0  0
   -2.3355    0.0837   -0.5119 N   0  0  0  0  0  0  0  0  0  0  0  0
   -1.3384   -0.6835    0.1996 C   0  0  1  0  0  0  0  0  0  0  0  0
   -1.4198   -2.1525   -0.0981 C   0  0  0  0  0  0  0  0  0  0  0  0
   -0.0327   -0.0709   -0.0689 C   0  0  0  0  0  0  0  0  0  0  0  0
    0.0836    0.9588   -0.7928 O   0  0  0  0  0  0  0  0  0  0  0  0
    1.1569   -0.6207    0.4778 N   0  0  0  0  0  0  0  0  0  0  0  0
    2.3229   -0.0263    0.2040 O   0  0  0  0  0  0  0  0  0  0  0  0
    3.0951   -0.8722   -0.5573 C   0  0  0  0  0  0  0  0  0  0  0  0
    4.4100   -0.2301   -0.8740 C   0  0  0  0  0  0  0  0  0  0  0  0
    4.6951    1.0688   -0.4069 N   0  0  0  0  0  0  0  0  0  0  0  0
    5.2349   -0.8739   -1.5515 O   0  0  0  0  0  0  0  0  0  0  0  0
   -4.7995    1.9548   -0.0266 H   0  0  0  0  0  0  0  0  0  0  0  0
   -3.7197    2.0784   -1.5068 H   0  0  0  0  0  0  0  0  0  0  0  0
   -3.5005    3.1496   -0.1173 H   0  0  0  0  0  0  0  0  0  0  0  0
   -3.2126    0.8651    1.2255 H   0  0  0  0  0  0  0  0  0  0  0  0
   -1.8240    1.8032    0.5360 H   0  0  0  0  0  0  0  0  0  0  0  0
   -3.0985   -0.4746   -0.9155 H   0  0  0  0  0  0  0  0  0  0  0  0
   -1.5673   -0.5258    1.2868 H   0  0  0  0  0  0  0  0  0  0  0  0
   -0.5752   -2.6727    0.3537 H   0  0  0  0  0  0  0  0  0  0  0  0
   -2.3607   -2.5290    0.3699 H   0  0  0  0  0  0  0  0  0  0  0  0
   -1.4098   -2.2978   -1.1889 H   0  0  0  0  0  0  0  0  0  0  0  0
    1.1520   -1.4614    1.0736 H   0  0  0  0  0  0  0  0  0  0  0  0
    3.3488   -1.7791    0.0477 H   0  0  0  0  0  0  0  0  0  0  0  0
    2.5732   -1.1496   -1.4708 H   0  0  0  0  0  0  0  0  0  0  0  0
    3.9565    1.6970   -0.0601 H   0  0  0  0  0  0  0  0  0  0  0  0
    5.6781    1.4438   -0.4081 H   0  0  0  0  0  0  0  0  0  0  0  0
  1  2  1  0
  2  3  1  0
  3  4  1  0
  4  5  1  0
  4  6  1  0
  6  7  2  0
  6  8  1  0
  8  9  1  0
  9 10  1  0
 10 11  1  0
 11 12  1  0
 11 13  2  0
  1 14  1  0
  1 15  1  0
  1 16  1  0
  2 17  1  0
  2 18  1  0
  3 19  1  0
  4 20  1  1
  5 21  1  0
  5 22  1  0
  5 23  1  0
  8 24  1  0
 10 25  1  0
 10 26  1  0
 12 27  1  0
 12 28  1  0
M  END
$$$$

     RDKit          3D

 28 27  0  0  0  0  0  0  0  0999 V2000
    4.2232    0.7569    0.4786 C   0  0  0  0  0  0  0  0  0  0  0  0
    3.6459   -0.4336   -0.2464 C   0  0  0  0  0  0  0  0  0  0  0  0
    2.3760   -0.8208    0.2920 N   0  0  0  0  0  0  0  0  0  0  0  0
    1.3418    0.1608    0.0806 C   0  0  1  0  0  0  0  0  0  0  0  0
    1.1600    0.3328   -1.4210 C   0  0  0  0  0  0  0  0  0  0  0  0
    0.0570   -0.3990    0.5610 C   0  0  0  0  0  0  0  0  0  0  0  0
    0.0158   -1.5956    0.9163 O   0  0  0  0  0  0  0  0  0  0  0  0
   -1.0989    0.4013    0.6249 N   0  0  0  0  0  0  0  0  0  0  0  0
   -2.2533   -0.1472    1.0682 O   0  0  0  0  0  0  0  0  0  0  0  0
   -3.2295    0.0811    0.1100 C   0  0  0  0  0  0  0  0  0  0  0  0
   -4.5087   -0.5085    0.5977 C   0  0  0  0  0  0  0  0  0  0  0  0
   -5.6739   -0.4873   -0.1937 N   0  0  0  0  0  0  0  0  0  0  0  0
   -4.5647   -1.0435    1.7456 O   0  0  0  0  0  0  0  0  0  0  0  0
    4.0839    0.6079    1.5584 H   0  0  0  0  0  0  0  0  0  0  0  0
    3.6346    1.6705    0.2232 H   0  0  0  0  0  0  0  0  0  0  0  0
    5.2754    0.8717    0.1967 H   0  0  0  0  0  0  0  0  0  0  0  0
    3.6266   -0.3875   -1.3209 H   0  0  0  0  0  0  0  0  0  0  0  0
    4.3495   -1.2937    0.0055 H   0  0  0  0  0  0  0  0  0  0  0  0
    2.3627   -1.3116    1.1721 H   0  0  0  0  0  0  0  0  0  0  0  0
    1.5835    1.1591    0.4803 H   0  0  0  0  0  0  0  0  0  0  0  0
    0.0882    0.4094   -1.6780 H   0  0  0  0  0  0  0  0  0  0  0  0
    1.5511   -0.5654   -1.9227 H   0  0  0  0  0  0  0  0  0  0  0  0
    1.6476    1.2743   -1.7650 H   0  0  0  0  0  0  0  0  0  0  0  0
   -1.1175    1.4291    0.3463 H   0  0  0  0  0  0  0  0  0  0  0  0
   -2.9273   -0.2954   -0.8646 H   0  0  0  0  0  0  0  0  0  0  0  0
   -3.3440    1.1900    0.0034 H   0  0  0  0  0  0  0  0  0  0  0  0
   -6.6408   -0.3172    0.1954 H   0  0  0  0  0  0  0  0  0  0  0  0
   -5.6643   -0.6386   -1.2439 H   0  0  0  0  0  0  0  0  0  0  0  0
  1  2  1  0
  2  3  1  0
  3  4  1  0
  4  5  1  0
  4  6  1  0
  6  7  2  0
  6  8  1  0
  8  9  1  0
  9 10  1  0
 10 11  1  0
 11 12  1  0
 11 13  2  0
  1 14  1  0
  1 15  1  0
  1 16  1  0
  2 17  1  0
  2 18  1  0
  3 19  1  0
  4 20  1  1
  5 21  1  0
  5 22  1  0
  5 23  1  0
  8 24  1  0
 10 25  1  0
 10 26  1  0
 12 27  1  0
 12 28  1  0
M  END
$$$$

     RDKit          3D

 28 27  0  0  0  0  0  0  0  0999 V2000
   -3.6572   -0.9548    1.1103 C   0  0  0  0  0  0  0  0  0  0  0  0
   -3.2271    0.5044    1.0636 C   0  0  0  0  0  0  0  0  0  0  0  0
   -1.7827    0.4824    0.9206 N   0  0  0  0  0  0  0  0  0  0  0  0
   -1.4060   -0.1338   -0.3522 C   0  0  1  0  0  0  0  0  0  0  0  0
   -1.9721    0.8465   -1.4210 C   0  0  0  0  0  0  0  0  0  0  0  0
    0.0103   -0.0548   -0.5045 C   0  0  0  0  0  0  0  0  0  0  0  0
    0.5652    0.6840   -1.3631 O   0  0  0  0  0  0  0  0  0  0  0  0
    0.9882   -0.8244    0.3313 N   0  0  0  0  0  0  0  0  0  0  0  0
    2.1550   -0.6151    0.0921 O   0  0  0  0  0  0  0  0  0  0  0  0
    3.3508   -0.9123   -0.1802 C   0  0  0  0  0  0  0  0  0  0  0  0
    4.0800    0.4302   -0.2732 C   0  0  0  0  0  0  0  0  0  0  0  0
    5.4522    0.5713   -0.0232 N   0  0  0  0  0  0  0  0  0  0  0  0
    3.4029    1.4400   -0.5832 O   0  0  0  0  0  0  0  0  0  0  0  0
   -4.5324   -1.0392    1.7592 H   0  0  0  0  0  0  0  0  0  0  0  0
   -3.9438   -1.2916    0.0658 H   0  0  0  0  0  0  0  0  0  0  0  0
   -2.8443   -1.5799    1.5096 H   0  0  0  0  0  0  0  0  0  0  0  0
   -3.7482    1.0755    0.3345 H   0  0  0  0  0  0  0  0  0  0  0  0
   -3.4012    0.8630    2.1326 H   0  0  0  0  0  0  0  0  0  0  0  0
   -1.4354    1.4461    0.9276 H   0  0  0  0  0  0  0  0  0  0  0  0
   -1.8155   -1.0931   -0.5492 H   0  0  0  0  0  0  0  0  0  0  0  0
   -1.5065    0.6070   -2.3973 H   0  0  0  0  0  0  0  0  0  0  0  0
   -3.0258    0.8218   -1.4684 H   0  0  0  0  0  0  0  0  0  0  0  0
   -1.6213    1.8750   -1.1333 H   0  0  0  0  0  0  0  0  0  0  0  0
    0.5172   -1.4213    1.0669 H   0  0  0  0  0  0  0  0  0  0  0  0
    3.8985   -1.5788    0.5319 H   0  0  0  0  0  0  0  0  0  0  0  0
    3.5618   -1.4347   -1.1851 H   0  0  0  0  0  0  0  0  0  0  0  0
    6.1238   -0.0982   -0.4060 H   0  0  0  0  0  0  0  0  0  0  0  0
    5.8134    1.3850    0.5836 H   0  0  0  0  0  0  0  0  0  0  0  0
  1  2  1  0
  2  3  1  0
  3  4  1  0
  4  5  1  0
  4  6  1  0
  6  7  2  0
  6  8  1  0
  8  9  1  0
  9 10  1  0
 10 11  1  0
 11 12  1  0
 11 13  2  0
  1 14  1  0
  1 15  1  0
  1 16  1  0
  2 17  1  0
  2 18  1  0
  3 19  1  0
  4 20  1  6
  5 21  1  0
  5 22  1  0
  5 23  1  0
  8 24  1  0
 10 25  1  0
 10 26  1  0
 12 27  1  0
 12 28  1  0
M  END
$$$$

     RDKit          3D

 28 27  0  0  0  0  0  0  0  0999 V2000
   -3.9377    0.8192   -0.1890 C   0  0  0  0  0  0  0  0  0  0  0  0
   -3.3850   -0.5449   -0.2122 C   0  0  0  0  0  0  0  0  0  0  0  0
   -2.0333   -0.7427   -0.6678 N   0  0  0  0  0  0  0  0  0  0  0  0
   -1.0714   -0.1340    0.1518 C   0  0  1  0  0  0  0  0  0  0  0  0
   -1.3033   -0.5919    1.5963 C   0  0  0  0  0  0  0  0  0  0  0  0
    0.3303   -0.7052   -0.1559 C   0  0  0  0  0  0  0  0  0  0  0  0
    0.4911   -1.6402   -0.9509 O   0  0  0  0  0  0  0  0  0  0  0  0
    1.3948   -0.1252    0.4980 N   0  0  0  0  0  0  0  0  0  0  0  0
    2.7074   -0.2431    0.4883 O   0  0  0  0  0  0  0  0  0  0  0  0
    3.1691   -0.5333   -0.8252 C   0  0  0  0  0  0  0  0  0  0  0  0
    3.9763    0.7479   -1.1712 C   0  0  0  0  0  0  0  0  0  0  0  0
    4.8861    1.2566   -0.2575 N   0  0  0  0  0  0  0  0  0  0  0  0
    3.6933    1.2276   -2.3215 O   0  0  0  0  0  0  0  0  0  0  0  0
   -4.9301    0.7314    0.3840 H   0  0  0  0  0  0  0  0  0  0  0  0
   -3.3822    1.5505    0.4459 H   0  0  0  0  0  0  0  0  0  0  0  0
   -4.2543    1.2639   -1.1397 H   0  0  0  0  0  0  0  0  0  0  0  0
   -3.4955   -1.0198    0.7847 H   0  0  0  0  0  0  0  0  0  0  0  0
   -4.0162   -1.1493   -0.9090 H   0  0  0  0  0  0  0  0  0  0  0  0
   -1.9286   -0.4936   -1.6888 H   0  0  0  0  0  0  0  0  0  0  0  0
   -0.9728    0.9535    0.0579 H   0  0  0  0  0  0  0  0  0  0  0  0
   -0.3503   -0.4154    2.1320 H   0  0  0  0  0  0  0  0  0  0  0  0
   -1.5464   -1.6675    1.4883 H   0  0  0  0  0  0  0  0  0  0  0  0
   -2.1358    0.0300    1.9998 H   0  0  0  0  0  0  0  0  0  0  0  0
    1.0779    0.6307    1.2516 H   0  0  0  0  0  0  0  0  0  0  0  0
    2.4562   -0.8087   -1.4933 H   0  0  0  0  0  0  0  0  0  0  0  0
    4.0352   -1.2617   -0.6191 H   0  0  0  0  0  0  0  0  0  0  0  0
    5.5401    0.5842    0.2471 H   0  0  0  0  0  0  0  0  0  0  0  0
    4.9847    2.2811   -0.0120 H   0  0  0  0  0  0  0  0  0  0  0  0
  1  2  1  0
  2  3  1  0
  3  4  1  0
  4  5  1  0
  4  6  1  0
  6  7  2  0
  6  8  1  0
  8  9  1  0
  9 10  1  0
 10 11  1  0
 11 12  1  0
 11 13  2  0
  1 14  1  0
  1 15  1  0
  1 16  1  0
  2 17  1  0
  2 18  1  0
  3 19  1  0
  4 20  1  1
  5 21  1  0
  5 22  1  0
  5 23  1  0
  8 24  1  0
 10 25  1  0
 10 26  1  0
 12 27  1  0
 12 28  1  0
M  END
$$$$

     RDKit          3D

 28 27  0  0  0  0  0  0  0  0999 V2000
    4.5444    1.3081    0.7817 C   0  0  0  0  0  0  0  0  0  0  0  0
    3.4199    0.7291   -0.0303 C   0  0  0  0  0  0  0  0  0  0  0  0
    2.1410    0.8087    0.6684 N   0  0  0  0  0  0  0  0  0  0  0  0
    1.1524    0.2453   -0.2259 C   0  0  1  0  0  0  0  0  0  0  0  0
    1.4829   -1.2046   -0.4798 C   0  0  0  0  0  0  0  0  0  0  0  0
   -0.2282    0.3648    0.3357 C   0  0  0  0  0  0  0  0  0  0  0  0
   -0.3748    0.9003    1.4600 O   0  0  0  0  0  0  0  0  0  0  0  0
   -1.3480   -0.1036   -0.3608 N   0  0  0  0  0  0  0  0  0  0  0  0
   -2.6284   -0.0296    0.0841 O   0  0  0  0  0  0  0  0  0  0  0  0
   -3.3801   -0.9209   -0.6764 C   0  0  0  0  0  0  0  0  0  0  0  0
   -4.8060   -0.9125   -0.2599 C   0  0  0  0  0  0  0  0  0  0  0  0
   -5.2876   -0.0929    0.7821 N   0  0  0  0  0  0  0  0  0  0  0  0
   -5.6271   -1.6612   -0.8530 O   0  0  0  0  0  0  0  0  0  0  0  0
    4.9077    2.2824    0.3425 H   0  0  0  0  0  0  0  0  0  0  0  0
    4.2616    1.5606    1.8227 H   0  0  0  0  0  0  0  0  0  0  0  0
    5.4091    0.6247    0.7041 H   0  0  0  0  0  0  0  0  0  0  0  0
    3.3461    1.2962   -0.9840 H   0  0  0  0  0  0  0  0  0  0  0  0
    3.5860   -0.3341   -0.3122 H   0  0  0  0  0  0  0  0  0  0  0  0
    1.9578    1.7755    0.9446 H   0  0  0  0  0  0  0  0  0  0  0  0
    1.2442    0.7853   -1.1924 H   0  0  0  0  0  0  0  0  0  0  0  0
    2.0678   -1.6561    0.3484 H   0  0  0  0  0  0  0  0  0  0  0  0
    2.0732   -1.2618   -1.4150 H   0  0  0  0  0  0  0  0  0  0  0  0
    0.5261   -1.7450   -0.6031 H   0  0  0  0  0  0  0  0  0  0  0  0
   -1.1437   -0.5441   -1.3103 H   0  0  0  0  0  0  0  0  0  0  0  0
   -3.0081   -1.9594   -0.5828 H   0  0  0  0  0  0  0  0  0  0  0  0
   -3.3506   -0.6817   -1.7543 H   0  0  0  0  0  0  0  0  0  0  0  0
   -5.9359    0.6891    0.5739 H   0  0  0  0  0  0  0  0  0  0  0  0
   -5.0018   -0.2626    1.7659 H   0  0  0  0  0  0  0  0  0  0  0  0
  1  2  1  0
  2  3  1  0
  3  4  1  0
  4  5  1  0
  4  6  1  0
  6  7  2  0
  6  8  1  0
  8  9  1  0
  9 10  1  0
 10 11  1  0
 11 12  1  0
 11 13  2  0
  1 14  1  0
  1 15  1  0
  1 16  1  0
  2 17  1  0
  2 18  1  0
  3 19  1  0
  4 20  1  6
  5 21  1  0
  5 22  1  0
  5 23  1  0
  8 24  1  0
 10 25  1  0
 10 26  1  0
 12 27  1  0
 12 28  1  0
M  END
$$$$
