
     RDKit          3D

 24 25  0  0  0  0  0  0  0  0999 V2000
    0.9345    1.2766    1.7160 C   0  0  0  0  0  0  0  0  0  0  0  0
    0.6273    0.4723    0.5226 N   0  0  0  0  0  0  0  0  0  0  0  0
    1.6959   -0.2847   -0.0028 C   0  0  0  0  0  0  0  0  0  0  0  0
    2.1127   -1.4869    0.4237 N   0  0  0  0  0  0  0  0  0  0  0  0
    3.1534   -1.8883   -0.3211 N   0  0  0  0  0  0  0  0  0  0  0  0
    3.3995   -0.9533   -1.2146 N   0  0  0  0  0  0  0  0  0  0  0  0
    2.5104    0.0334   -1.0254 N   0  0  0  0  0  0  0  0  0  0  0  0
   -0.6917    0.5708    0.0498 C   0  0  2  0  0  0  0  0  0  0  0  0
   -1.7807    0.1344    1.0224 C   0  0  0  0  0  0  0  0  0  0  0  0
   -2.9343    0.1686    0.2350 O   0  0  0  0  0  0  0  0  0  0  0  0
   -2.5904    0.0763   -1.0906 C   0  0  0  0  0  0  0  0  0  0  0  0
   -1.0876   -0.2815   -1.1113 C   0  0  2  0  0  0  0  0  0  0  0  0
   -1.0411   -1.6376   -0.8730 O   0  0  0  0  0  0  0  0  0  0  0  0
    1.9504    1.0878    2.0959 H   0  0  0  0  0  0  0  0  0  0  0  0
    0.1638    1.1473    2.4901 H   0  0  0  0  0  0  0  0  0  0  0  0
    0.9258    2.3499    1.3693 H   0  0  0  0  0  0  0  0  0  0  0  0
    4.1442   -0.9566   -1.9501 H   0  0  0  0  0  0  0  0  0  0  0  0
   -0.9872    1.6261   -0.2278 H   0  0  0  0  0  0  0  0  0  0  0  0
   -1.8141    0.7998    1.8904 H   0  0  0  0  0  0  0  0  0  0  0  0
   -1.6714   -0.9177    1.3493 H   0  0  0  0  0  0  0  0  0  0  0  0
   -3.1850   -0.5782   -1.7151 H   0  0  0  0  0  0  0  0  0  0  0  0
   -2.6136    1.1263   -1.5081 H   0  0  0  0  0  0  0  0  0  0  0  0
   -0.6364    0.0253   -2.0792 H   0  0  0  0  0  0  0  0  0  0  0  0
   -0.5844   -1.9102   -0.0454 H   0  0  0  0  0  0  0  0  0  0  0  0
  1  2  1  0
  2  3  1  0
  3  4  1  0
  4  5  2  0
  5  6  1  0
  6  7  1  0
  2  8  1  0
  8  9  1  0
  9 10  1  0
 10 11  1  0
 11 12  1  0
 12 13  1  0
  7  3  2  0
 12  8  1  0
  1 14  1  0
  1 15  1  0
  1 16  1  0
  6 17  1  0
  8 18  1  6
  9 19  1  0
  9 20  1  0
 11 21  1  0
 11 22  1  0
 12 23  1  6
 13 24  1  0
M  END
$$$$

     RDKit          3D

 24 25  0  0  0  0  0  0  0  0999 V2000
    0.2641    1.8830    0.3315 C   0  0  0  0  0  0  0  0  0  0  0  0
    0.6314    0.4988    0.1176 N   0  0  0  0  0  0  0  0  0  0  0  0
    1.9672    0.0836    0.3799 C   0  0  0  0  0  0  0  0  0  0  0  0
    3.0031    0.8207    0.8217 N   0  0  0  0  0  0  0  0  0  0  0  0
    4.0840    0.0306    0.9317 N   0  0  0  0  0  0  0  0  0  0  0  0
    3.7438   -1.1761    0.5693 N   0  0  0  0  0  0  0  0  0  0  0  0
    2.4655   -1.1606    0.2324 N   0  0  0  0  0  0  0  0  0  0  0  0
   -0.3487   -0.4194   -0.3501 C   0  0  2  0  0  0  0  0  0  0  0  0
   -0.9476   -0.0768   -1.6985 C   0  0  0  0  0  0  0  0  0  0  0  0
   -1.9954   -1.0279   -1.7416 O   0  0  0  0  0  0  0  0  0  0  0  0
   -2.6240   -0.9546   -0.5256 C   0  0  0  0  0  0  0  0  0  0  0  0
   -1.5947   -0.4985    0.5048 C   0  0  2  0  0  0  0  0  0  0  0  0
   -1.9889    0.7562    0.9594 O   0  0  0  0  0  0  0  0  0  0  0  0
    1.1627    2.5583    0.2240 H   0  0  0  0  0  0  0  0  0  0  0  0
   -0.4281    2.1889   -0.4566 H   0  0  0  0  0  0  0  0  0  0  0  0
   -0.0993    2.0683    1.3629 H   0  0  0  0  0  0  0  0  0  0  0  0
    4.3447   -2.0052    0.5426 H   0  0  0  0  0  0  0  0  0  0  0  0
    0.0581   -1.4530   -0.4075 H   0  0  0  0  0  0  0  0  0  0  0  0
   -1.3968    0.9186   -1.7115 H   0  0  0  0  0  0  0  0  0  0  0  0
   -0.2273   -0.2633   -2.5104 H   0  0  0  0  0  0  0  0  0  0  0  0
   -2.9798   -1.9961   -0.2792 H   0  0  0  0  0  0  0  0  0  0  0  0
   -3.4860   -0.2824   -0.5503 H   0  0  0  0  0  0  0  0  0  0  0  0
   -1.5270   -1.2440    1.2986 H   0  0  0  0  0  0  0  0  0  0  0  0
   -2.0811    0.7509    1.9549 H   0  0  0  0  0  0  0  0  0  0  0  0
  1  2  1  0
  2  3  1  0
  3  4  1  0
  4  5  2  0
  5  6  1  0
  6  7  1  0
  2  8  1  0
  8  9  1  0
  9 10  1  0
 10 11  1  0
 11 12  1  0
 12 13  1  0
  7  3  2  0
 12  8  1  0
  1 14  1  0
  1 15  1  0
  1 16  1  0
  6 17  1  0
  8 18  1  6
  9 19  1  0
  9 20  1  0
 11 21  1  0
 11 22  1  0
 12 23  1  1
 13 24  1  0
M  END
$$$$

     RDKit          3D

 24 25  0  0  0  0  0  0  0  0999 V2000
    0.6875   -1.3513   -1.6732 C   0  0  0  0  0  0  0  0  0  0  0  0
    0.6453   -0.3223   -0.6488 N   0  0  0  0  0  0  0  0  0  0  0  0
    1.7703   -0.2738    0.2490 C   0  0  0  0  0  0  0  0  0  0  0  0
    2.8448   -1.0765    0.2058 N   0  0  0  0  0  0  0  0  0  0  0  0
    3.6506   -0.7443    1.1725 N   0  0  0  0  0  0  0  0  0  0  0  0
    3.1069    0.2581    1.8320 N   0  0  0  0  0  0  0  0  0  0  0  0
    1.9578    0.5572    1.2801 N   0  0  0  0  0  0  0  0  0  0  0  0
   -0.4926    0.5135   -0.6397 C   0  0  2  0  0  0  0  0  0  0  0  0
   -0.5780    1.6116    0.3363 C   0  0  0  0  0  0  0  0  0  0  0  0
   -1.4498    1.1707    1.3647 O   0  0  0  0  0  0  0  0  0  0  0  0
   -2.5064    0.7074    0.5463 C   0  0  0  0  0  0  0  0  0  0  0  0
   -1.7762   -0.2810   -0.3288 C   0  0  2  0  0  0  0  0  0  0  0  0
   -1.4567   -1.3754    0.4730 O   0  0  0  0  0  0  0  0  0  0  0  0
    1.2842   -0.9079   -2.5239 H   0  0  0  0  0  0  0  0  0  0  0  0
   -0.3071   -1.5739   -2.0995 H   0  0  0  0  0  0  0  0  0  0  0  0
    1.1905   -2.2628   -1.3360 H   0  0  0  0  0  0  0  0  0  0  0  0
    3.5471    0.7198    2.6598 H   0  0  0  0  0  0  0  0  0  0  0  0
   -0.6580    0.8849   -1.6870 H   0  0  0  0  0  0  0  0  0  0  0  0
    0.3202    2.0879    0.6889 H   0  0  0  0  0  0  0  0  0  0  0  0
   -1.1831    2.4431   -0.1504 H   0  0  0  0  0  0  0  0  0  0  0  0
   -3.3139    0.2574    1.1364 H   0  0  0  0  0  0  0  0  0  0  0  0
   -2.8184    1.5710   -0.0717 H   0  0  0  0  0  0  0  0  0  0  0  0
   -2.3202   -0.5517   -1.2319 H   0  0  0  0  0  0  0  0  0  0  0  0
   -2.1448   -2.0616    0.4463 H   0  0  0  0  0  0  0  0  0  0  0  0
  1  2  1  0
  2  3  1  0
  3  4  1  0
  4  5  2  0
  5  6  1  0
  6  7  1  0
  2  8  1  0
  8  9  1  0
  9 10  1  0
 10 11  1  0
 11 12  1  0
 12 13  1  0
  7  3  2  0
 12  8  1  0
  1 14  1  0
  1 15  1  0
  1 16  1  0
  6 17  1  0
  8 18  1  6
  9 19  1  0
  9 20  1  0
 11 21  1  0
 11 22  1  0
 12 23  1  6
 13 24  1  0
M  END
$$$$

     RDKit          3D

 24 25  0  0  0  0  0  0  0  0999 V2000
    0.7746   -1.8197    0.7871 C   0  0  0  0  0  0  0  0  0  0  0  0
    0.4653   -0.6465   -0.0358 N   0  0  0  0  0  0  0  0  0  0  0  0
    1.4903    0.3200   -0.0784 C   0  0  0  0  0  0  0  0  0  0  0  0
    1.4454    1.6613   -0.0183 N   0  0  0  0  0  0  0  0  0  0  0  0
    2.6931    2.1468   -0.1382 N   0  0  0  0  0  0  0  0  0  0  0  0
    3.5315    1.1619   -0.2714 N   0  0  0  0  0  0  0  0  0  0  0  0
    2.8335    0.0424   -0.2393 N   0  0  0  0  0  0  0  0  0  0  0  0
   -0.7450   -0.5008   -0.7624 C   0  0  2  0  0  0  0  0  0  0  0  0
   -0.8078    0.8112   -1.4966 C   0  0  0  0  0  0  0  0  0  0  0  0
   -1.4690    1.7048   -0.6886 O   0  0  0  0  0  0  0  0  0  0  0  0
   -1.8805    1.0957    0.4758 C   0  0  0  0  0  0  0  0  0  0  0  0
   -1.9975   -0.3526    0.0760 C   0  0  2  0  0  0  0  0  0  0  0  0
   -2.1238   -1.2446    1.0974 O   0  0  0  0  0  0  0  0  0  0  0  0
    1.1485   -1.3880    1.7741 H   0  0  0  0  0  0  0  0  0  0  0  0
    1.5706   -2.3813    0.2883 H   0  0  0  0  0  0  0  0  0  0  0  0
   -0.0832   -2.4442    1.0101 H   0  0  0  0  0  0  0  0  0  0  0  0
    4.5722    1.1931   -0.3979 H   0  0  0  0  0  0  0  0  0  0  0  0
   -0.8489   -1.3646   -1.4781 H   0  0  0  0  0  0  0  0  0  0  0  0
   -1.5016    0.6590   -2.3855 H   0  0  0  0  0  0  0  0  0  0  0  0
    0.1421    1.1927   -1.8732 H   0  0  0  0  0  0  0  0  0  0  0  0
   -2.8355    1.5129    0.8456 H   0  0  0  0  0  0  0  0  0  0  0  0
   -1.0532    1.2127    1.2103 H   0  0  0  0  0  0  0  0  0  0  0  0
   -2.8499   -0.4842   -0.6331 H   0  0  0  0  0  0  0  0  0  0  0  0
   -2.4712   -2.0881    0.7152 H   0  0  0  0  0  0  0  0  0  0  0  0
  1  2  1  0
  2  3  1  0
  3  4  1  0
  4  5  2  0
  5  6  1  0
  6  7  1  0
  2  8  1  0
  8  9  1  0
  9 10  1  0
 10 11  1  0
 11 12  1  0
 12 13  1  0
  7  3  2  0
 12  8  1  0
  1 14  1  0
  1 15  1  0
  1 16  1  0
  6 17  1  0
  8 18  1  6
  9 19  1  0
  9 20  1  0
 11 21  1  0
 11 22  1  0
 12 23  1  6
 13 24  1  0
M  END
$$$$

     RDKit          3D

 24 25  0  0  0  0  0  0  0  0999 V2000
    0.5583   -1.3011   -1.1346 C   0  0  0  0  0  0  0  0  0  0  0  0
    0.5689   -0.3578   -0.0470 N   0  0  0  0  0  0  0  0  0  0  0  0
    1.8162    0.0858    0.4646 C   0  0  0  0  0  0  0  0  0  0  0  0
    2.2961   -0.2483    1.6650 N   0  0  0  0  0  0  0  0  0  0  0  0
    3.4629    0.3093    1.8502 N   0  0  0  0  0  0  0  0  0  0  0  0
    3.7168    1.0116    0.7321 N   0  0  0  0  0  0  0  0  0  0  0  0
    2.7183    0.8856   -0.1268 N   0  0  0  0  0  0  0  0  0  0  0  0
   -0.6323    0.1602    0.5541 C   0  0  2  0  0  0  0  0  0  0  0  0
   -1.5700   -0.9466    1.0164 C   0  0  0  0  0  0  0  0  0  0  0  0
   -2.8570   -0.5406    0.6299 O   0  0  0  0  0  0  0  0  0  0  0  0
   -2.6400    0.0144   -0.6353 C   0  0  0  0  0  0  0  0  0  0  0  0
   -1.5072    0.9748   -0.3380 C   0  0  2  0  0  0  0  0  0  0  0  0
   -0.8927    1.4798   -1.4697 O   0  0  0  0  0  0  0  0  0  0  0  0
    1.5761   -1.5200   -1.5204 H   0  0  0  0  0  0  0  0  0  0  0  0
    0.1509   -2.3101   -0.8307 H   0  0  0  0  0  0  0  0  0  0  0  0
   -0.0243   -0.9116   -2.0145 H   0  0  0  0  0  0  0  0  0  0  0  0
    4.6206    1.5601    0.6421 H   0  0  0  0  0  0  0  0  0  0  0  0
   -0.3554    0.7978    1.4535 H   0  0  0  0  0  0  0  0  0  0  0  0
   -1.4921   -1.0135    2.1265 H   0  0  0  0  0  0  0  0  0  0  0  0
   -1.3830   -1.9153    0.5393 H   0  0  0  0  0  0  0  0  0  0  0  0
   -2.3299   -0.7947   -1.3485 H   0  0  0  0  0  0  0  0  0  0  0  0
   -3.5406    0.5500   -1.0048 H   0  0  0  0  0  0  0  0  0  0  0  0
   -1.9731    1.7989    0.2672 H   0  0  0  0  0  0  0  0  0  0  0  0
   -0.2875    2.2312   -1.2249 H   0  0  0  0  0  0  0  0  0  0  0  0
  1  2  1  0
  2  3  1  0
  3  4  1  0
  4  5  2  0
  5  6  1  0
  6  7  1  0
  2  8  1  0
  8  9  1  0
  9 10  1  0
 10 11  1  0
 11 12  1  0
 12 13  1  0
  7  3  2  0
 12  8  1  0
  1 14  1  0
  1 15  1  0
  1 16  1  0
  6 17  1  0
  8 18  1  1
  9 19  1  0
  9 20  1  0
 11 21  1  0
 11 22  1  0
 12 23  1  1
 13 24  1  0
M  END
$$$$

     RDKit          3D

 24 25  0  0  0  0  0  0  0  0999 V2000
    0.5941   -1.9249   -0.0647 C   0  0  0  0  0  0  0  0  0  0  0  0
    0.7049   -0.5018    0.0073 N   0  0  0  0  0  0  0  0  0  0  0  0
    1.9996    0.0798   -0.1172 C   0  0  0  0  0  0  0  0  0  0  0  0
    3.1908   -0.5611   -0.3023 N   0  0  0  0  0  0  0  0  0  0  0  0
    4.1463    0.3576   -0.3648 N   0  0  0  0  0  0  0  0  0  0  0  0
    3.6223    1.5587   -0.2281 N   0  0  0  0  0  0  0  0  0  0  0  0
    2.3373    1.3870   -0.0802 N   0  0  0  0  0  0  0  0  0  0  0  0
   -0.4058    0.3583    0.1959 C   0  0  2  0  0  0  0  0  0  0  0  0
   -1.1661    0.1203    1.4760 C   0  0  0  0  0  0  0  0  0  0  0  0
   -2.3366    0.8164    1.2965 O   0  0  0  0  0  0  0  0  0  0  0  0
   -2.5909    0.9468   -0.0420 C   0  0  0  0  0  0  0  0  0  0  0  0
   -1.5390    0.1446   -0.7880 C   0  0  2  0  0  0  0  0  0  0  0  0
   -1.9819   -1.1700   -0.7959 O   0  0  0  0  0  0  0  0  0  0  0  0
    1.5751   -2.4121    0.1114 H   0  0  0  0  0  0  0  0  0  0  0  0
    0.2201   -2.3074   -1.0325 H   0  0  0  0  0  0  0  0  0  0  0  0
   -0.0710   -2.2829    0.7577 H   0  0  0  0  0  0  0  0  0  0  0  0
    4.1540    2.4694   -0.2389 H   0  0  0  0  0  0  0  0  0  0  0  0
   -0.1384    1.4203    0.1572 H   0  0  0  0  0  0  0  0  0  0  0  0
   -1.4289   -0.9661    1.5216 H   0  0  0  0  0  0  0  0  0  0  0  0
   -0.5896    0.4300    2.3638 H   0  0  0  0  0  0  0  0  0  0  0  0
   -3.6166    0.6672   -0.3473 H   0  0  0  0  0  0  0  0  0  0  0  0
   -2.4060    2.0213   -0.3146 H   0  0  0  0  0  0  0  0  0  0  0  0
   -1.3235    0.5403   -1.7862 H   0  0  0  0  0  0  0  0  0  0  0  0
   -2.9499   -1.1914   -1.0327 H   0  0  0  0  0  0  0  0  0  0  0  0
  1  2  1  0
  2  3  1  0
  3  4  1  0
  4  5  2  0
  5  6  1  0
  6  7  1  0
  2  8  1  0
  8  9  1  0
  9 10  1  0
 10 11  1  0
 11 12  1  0
 12 13  1  0
  7  3  2  0
 12  8  1  0
  1 14  1  0
  1 15  1  0
  1 16  1  0
  6 17  1  0
  8 18  1  1
  9 19  1  0
  9 20  1  0
 11 21  1  0
 11 22  1  0
 12 23  1  6
 13 24  1  0
M  END
$$$$

     RDKit          3D

 24 25  0  0  0  0  0  0  0  0999 V2000
    1.0200    2.1219   -0.1048 C   0  0  0  0  0  0  0  0  0  0  0  0
    0.6032    0.6979   -0.1761 N   0  0  0  0  0  0  0  0  0  0  0  0
    1.4808   -0.2258    0.4083 C   0  0  0  0  0  0  0  0  0  0  0  0
    1.7296   -0.3592    1.7332 N   0  0  0  0  0  0  0  0  0  0  0  0
    2.6289   -1.3412    1.9043 N   0  0  0  0  0  0  0  0  0  0  0  0
    2.9456   -1.8237    0.7162 N   0  0  0  0  0  0  0  0  0  0  0  0
    2.2506   -1.1472   -0.1851 N   0  0  0  0  0  0  0  0  0  0  0  0
   -0.6209    0.4566   -0.8423 C   0  0  2  0  0  0  0  0  0  0  0  0
   -1.6900    1.3297   -0.1993 C   0  0  0  0  0  0  0  0  0  0  0  0
   -2.4175    0.5601    0.6580 O   0  0  0  0  0  0  0  0  0  0  0  0
   -2.0794   -0.7539    0.5165 C   0  0  0  0  0  0  0  0  0  0  0  0
   -1.2266   -0.8818   -0.7184 C   0  0  2  0  0  0  0  0  0  0  0  0
   -0.3789   -1.9457   -0.7269 O   0  0  0  0  0  0  0  0  0  0  0  0
    0.4082    2.7683   -0.7347 H   0  0  0  0  0  0  0  0  0  0  0  0
    2.0668    2.1659   -0.4650 H   0  0  0  0  0  0  0  0  0  0  0  0
    1.0415    2.4343    0.9697 H   0  0  0  0  0  0  0  0  0  0  0  0
    3.6184   -2.6001    0.5036 H   0  0  0  0  0  0  0  0  0  0  0  0
   -0.5494    0.8117   -1.9138 H   0  0  0  0  0  0  0  0  0  0  0  0
   -1.2283    2.1689    0.3753 H   0  0  0  0  0  0  0  0  0  0  0  0
   -2.3263    1.8270   -0.9698 H   0  0  0  0  0  0  0  0  0  0  0  0
   -1.4908   -1.1091    1.3945 H   0  0  0  0  0  0  0  0  0  0  0  0
   -2.9727   -1.3826    0.3803 H   0  0  0  0  0  0  0  0  0  0  0  0
   -1.9305   -1.0125   -1.5893 H   0  0  0  0  0  0  0  0  0  0  0  0
   -0.8822   -2.7596   -0.9341 H   0  0  0  0  0  0  0  0  0  0  0  0
  1  2  1  0
  2  3  1  0
  3  4  1  0
  4  5  2  0
  5  6  1  0
  6  7  1  0
  2  8  1  0
  8  9  1  0
  9 10  1  0
 10 11  1  0
 11 12  1  0
 12 13  1  0
  7  3  2  0
 12  8  1  0
  1 14  1  0
  1 15  1  0
  1 16  1  0
  6 17  1  0
  8 18  1  6
  9 19  1  0
  9 20  1  0
 11 21  1  0
 11 22  1  0
 12 23  1  6
 13 24  1  0
M  END
$$$$

     RDKit          3D

 24 25  0  0  0  0  0  0  0  0999 V2000
    0.3260    1.8939    0.1240 C   0  0  0  0  0  0  0  0  0  0  0  0
    0.6060    0.4924    0.0873 N   0  0  0  0  0  0  0  0  0  0  0  0
    1.9346    0.0516    0.3253 C   0  0  0  0  0  0  0  0  0  0  0  0
    2.6707    0.0008    1.4365 N   0  0  0  0  0  0  0  0  0  0  0  0
    3.8526   -0.5254    1.1161 N   0  0  0  0  0  0  0  0  0  0  0  0
    3.8945   -0.8124   -0.1556 N   0  0  0  0  0  0  0  0  0  0  0  0
    2.7307   -0.4678   -0.6676 N   0  0  0  0  0  0  0  0  0  0  0  0
   -0.3881   -0.4972   -0.1927 C   0  0  2  0  0  0  0  0  0  0  0  0
   -0.9930   -0.2805   -1.5672 C   0  0  0  0  0  0  0  0  0  0  0  0
   -2.2387   -0.8430   -1.4729 O   0  0  0  0  0  0  0  0  0  0  0  0
   -2.7206   -0.6174   -0.2039 C   0  0  0  0  0  0  0  0  0  0  0  0
   -1.5333   -0.5871    0.7466 C   0  0  2  0  0  0  0  0  0  0  0  0
   -1.6821    0.4311    1.6448 O   0  0  0  0  0  0  0  0  0  0  0  0
   -0.7277    2.1289    0.3837 H   0  0  0  0  0  0  0  0  0  0  0  0
    0.9876    2.4109    0.8793 H   0  0  0  0  0  0  0  0  0  0  0  0
    0.5923    2.4041   -0.8513 H   0  0  0  0  0  0  0  0  0  0  0  0
    4.6982   -1.2393   -0.6607 H   0  0  0  0  0  0  0  0  0  0  0  0
    0.0631   -1.5366   -0.2448 H   0  0  0  0  0  0  0  0  0  0  0  0
   -0.3309   -0.7604   -2.3050 H   0  0  0  0  0  0  0  0  0  0  0  0
   -1.0166    0.8027   -1.8182 H   0  0  0  0  0  0  0  0  0  0  0  0
   -3.3974   -1.4785    0.0314 H   0  0  0  0  0  0  0  0  0  0  0  0
   -3.2646    0.3546   -0.1390 H   0  0  0  0  0  0  0  0  0  0  0  0
   -1.5544   -1.5518    1.3272 H   0  0  0  0  0  0  0  0  0  0  0  0
   -2.5087    0.2265    2.1768 H   0  0  0  0  0  0  0  0  0  0  0  0
  1  2  1  0
  2  3  1  0
  3  4  1  0
  4  5  2  0
  5  6  1  0
  6  7  1  0
  2  8  1  0
  8  9  1  0
  9 10  1  0
 10 11  1  0
 11 12  1  0
 12 13  1  0
  7  3  2  0
 12  8  1  0
  1 14  1  0
  1 15  1  0
  1 16  1  0
  6 17  1  0
  8 18  1  6
  9 19  1  0
  9 20  1  0
 11 21  1  0
 11 22  1  0
 12 23  1  1
 13 24  1  0
M  END
$$$$
