
     RDKit          3D

 25 25  0  0  0  0  0  0  0  0999 V2000
   -1.3702    0.0812    2.7484 N   0  0  0  0  0  0  0  0  0  0  0  0
   -0.7542   -0.7333    1.8765 O   0  0  0  0  0  0  0  0  0  0  0  0
   -0.6878   -0.1947    0.5883 C   0  0  1  0  0  0  0  0  0  0  0  0
    0.7135   -0.1141    0.1833 C   0  0  0  0  0  0  0  0  0  0  0  0
    1.6499   -0.4911    0.9357 O   0  0  0  0  0  0  0  0  0  0  0  0
    1.1043    0.3974   -1.0905 N   0  0  0  0  0  0  0  0  0  0  0  0
    2.4789    0.4878   -1.5143 C   0  0  0  0  0  0  0  0  0  0  0  0
    3.2751    1.3584   -0.6037 C   0  0  0  0  0  0  0  0  0  0  0  0
    2.7026    1.8877    0.3738 O   0  0  0  0  0  0  0  0  0  0  0  0
    4.6213    1.5941   -0.8106 O   0  0  0  0  0  0  0  0  0  0  0  0
   -1.5348   -1.0644   -0.2935 C   0  0  0  0  0  0  0  0  0  0  0  0
   -3.0017   -1.1091    0.1657 C   0  0  0  0  0  0  0  0  0  0  0  0
   -2.6005   -0.5218   -1.1487 C   0  0  0  0  0  0  0  0  0  0  0  0
   -0.7206    0.5026    3.4462 H   0  0  0  0  0  0  0  0  0  0  0  0
   -2.2094   -0.3392    3.1879 H   0  0  0  0  0  0  0  0  0  0  0  0
   -1.1871    0.8039    0.6488 H   0  0  0  0  0  0  0  0  0  0  0  0
    0.3240    0.7083   -1.7096 H   0  0  0  0  0  0  0  0  0  0  0  0
    2.5079    0.9749   -2.5097 H   0  0  0  0  0  0  0  0  0  0  0  0
    2.9683   -0.5013   -1.6072 H   0  0  0  0  0  0  0  0  0  0  0  0
    5.2100    1.9163   -0.0531 H   0  0  0  0  0  0  0  0  0  0  0  0
   -1.0762   -2.0348   -0.6023 H   0  0  0  0  0  0  0  0  0  0  0  0
   -3.3485   -0.3967    0.9101 H   0  0  0  0  0  0  0  0  0  0  0  0
   -3.4270   -2.1317    0.2221 H   0  0  0  0  0  0  0  0  0  0  0  0
   -2.8966   -1.1203   -2.0336 H   0  0  0  0  0  0  0  0  0  0  0  0
   -2.7413    0.5688   -1.3101 H   0  0  0  0  0  0  0  0  0  0  0  0
  1  2  1  0
  2  3  1  0
  3  4  1  0
  4  5  2  0
  4  6  1  0
  6  7  1  0
  7  8  1  0
  8  9  2  0
  8 10  1  0
  3 11  1  0
 11 12  1  0
 12 13  1  0
 13 11  1  0
  1 14  1  0
  1 15  1  0
  3 16  1  1
  6 17  1  0
  7 18  1  0
  7 19  1  0
 10 20  1  0
 11 21  1  0
 12 22  1  0
 12 23  1  0
 13 24  1  0
 13 25  1  0
M  END
$$$$

     RDKit          3D

 25 25  0  0  0  0  0  0  0  0999 V2000
   -1.3170   -2.8283   -0.1789 N   0  0  0  0  0  0  0  0  0  0  0  0
   -1.0070   -1.6725   -0.8136 O   0  0  0  0  0  0  0  0  0  0  0  0
   -1.0715   -0.5745    0.0600 C   0  0  1  0  0  0  0  0  0  0  0  0
    0.2553    0.0218    0.1603 C   0  0  0  0  0  0  0  0  0  0  0  0
    0.4953    1.0276    0.8819 O   0  0  0  0  0  0  0  0  0  0  0  0
    1.3534   -0.5161   -0.5646 N   0  0  0  0  0  0  0  0  0  0  0  0
    2.6650    0.0914   -0.4508 C   0  0  0  0  0  0  0  0  0  0  0  0
    3.1363    0.0561    0.9504 C   0  0  0  0  0  0  0  0  0  0  0  0
    2.4470   -0.4452    1.8583 O   0  0  0  0  0  0  0  0  0  0  0  0
    4.3787    0.5968    1.2539 O   0  0  0  0  0  0  0  0  0  0  0  0
   -2.1479    0.3186   -0.4414 C   0  0  0  0  0  0  0  0  0  0  0  0
   -2.3814    1.5911    0.3866 C   0  0  0  0  0  0  0  0  0  0  0  0
   -1.8879    1.6439   -1.0352 C   0  0  0  0  0  0  0  0  0  0  0  0
   -1.7574   -3.4589   -0.8591 H   0  0  0  0  0  0  0  0  0  0  0  0
   -1.9121   -2.5718    0.6340 H   0  0  0  0  0  0  0  0  0  0  0  0
   -1.3705   -0.9799    1.0651 H   0  0  0  0  0  0  0  0  0  0  0  0
    1.2294   -1.3489   -1.1829 H   0  0  0  0  0  0  0  0  0  0  0  0
    2.6411    1.1435   -0.8247 H   0  0  0  0  0  0  0  0  0  0  0  0
    3.3925   -0.4362   -1.1003 H   0  0  0  0  0  0  0  0  0  0  0  0
    4.5472    0.8227    2.2338 H   0  0  0  0  0  0  0  0  0  0  0  0
   -3.0714   -0.2221   -0.7700 H   0  0  0  0  0  0  0  0  0  0  0  0
   -1.6559    1.8828    1.1446 H   0  0  0  0  0  0  0  0  0  0  0  0
   -3.4467    1.8237    0.5986 H   0  0  0  0  0  0  0  0  0  0  0  0
   -2.6436    2.0197   -1.7564 H   0  0  0  0  0  0  0  0  0  0  0  0
   -0.8710    2.0148   -1.2496 H   0  0  0  0  0  0  0  0  0  0  0  0
  1  2  1  0
  2  3  1  0
  3  4  1  0
  4  5  2  0
  4  6  1  0
  6  7  1  0
  7  8  1  0
  8  9  2  0
  8 10  1  0
  3 11  1  0
 11 12  1  0
 12 13  1  0
 13 11  1  0
  1 14  1  0
  1 15  1  0
  3 16  1  1
  6 17  1  0
  7 18  1  0
  7 19  1  0
 10 20  1  0
 11 21  1  0
 12 22  1  0
 12 23  1  0
 13 24  1  0
 13 25  1  0
M  END
$$$$

     RDKit          3D

 25 25  0  0  0  0  0  0  0  0999 V2000
   -1.3235    1.5548   -2.2111 N   0  0  0  0  0  0  0  0  0  0  0  0
   -0.9088    1.4327   -0.9335 O   0  0  0  0  0  0  0  0  0  0  0  0
   -1.1469    0.1656   -0.4160 C   0  0  1  0  0  0  0  0  0  0  0  0
    0.1802   -0.4220   -0.0690 C   0  0  0  0  0  0  0  0  0  0  0  0
    0.1746   -1.5811    0.4199 O   0  0  0  0  0  0  0  0  0  0  0  0
    1.4042    0.2752   -0.2720 N   0  0  0  0  0  0  0  0  0  0  0  0
    2.6234   -0.3938    0.1014 C   0  0  0  0  0  0  0  0  0  0  0  0
    3.8263    0.4090   -0.1479 C   0  0  0  0  0  0  0  0  0  0  0  0
    3.7347    1.5513   -0.6370 O   0  0  0  0  0  0  0  0  0  0  0  0
    5.0684   -0.0977    0.1587 O   0  0  0  0  0  0  0  0  0  0  0  0
   -1.9404    0.2080    0.8660 C   0  0  0  0  0  0  0  0  0  0  0  0
   -2.1981   -1.2049    1.4283 C   0  0  0  0  0  0  0  0  0  0  0  0
   -3.3131   -0.2635    0.9764 C   0  0  0  0  0  0  0  0  0  0  0  0
   -2.1949    2.1117   -2.2562 H   0  0  0  0  0  0  0  0  0  0  0  0
   -1.3957    0.6368   -2.7016 H   0  0  0  0  0  0  0  0  0  0  0  0
   -1.6278   -0.4381   -1.2012 H   0  0  0  0  0  0  0  0  0  0  0  0
    1.3840    1.2535   -0.6865 H   0  0  0  0  0  0  0  0  0  0  0  0
    2.6499   -1.3504   -0.4972 H   0  0  0  0  0  0  0  0  0  0  0  0
    2.5750   -0.7476    1.1676 H   0  0  0  0  0  0  0  0  0  0  0  0
    5.9312    0.4191    0.1031 H   0  0  0  0  0  0  0  0  0  0  0  0
   -1.5662    0.9679    1.5849 H   0  0  0  0  0  0  0  0  0  0  0  0
   -2.0815   -2.0656    0.7738 H   0  0  0  0  0  0  0  0  0  0  0  0
   -2.0028   -1.3125    2.5097 H   0  0  0  0  0  0  0  0  0  0  0  0
   -3.9390   -0.5503    0.1162 H   0  0  0  0  0  0  0  0  0  0  0  0
   -3.9132    0.1394    1.8232 H   0  0  0  0  0  0  0  0  0  0  0  0
  1  2  1  0
  2  3  1  0
  3  4  1  0
  4  5  2  0
  4  6  1  0
  6  7  1  0
  7  8  1  0
  8  9  2  0
  8 10  1  0
  3 11  1  0
 11 12  1  0
 12 13  1  0
 13 11  1  0
  1 14  1  0
  1 15  1  0
  3 16  1  6
  6 17  1  0
  7 18  1  0
  7 19  1  0
 10 20  1  0
 11 21  1  0
 12 22  1  0
 12 23  1  0
 13 24  1  0
 13 25  1  0
M  END
$$$$

     RDKit          3D

 25 25  0  0  0  0  0  0  0  0999 V2000
   -1.7025    3.0929   -0.4995 N   0  0  0  0  0  0  0  0  0  0  0  0
   -1.6004    2.1282    0.4265 O   0  0  0  0  0  0  0  0  0  0  0  0
   -0.9920    0.9563   -0.1169 C   0  0  1  0  0  0  0  0  0  0  0  0
    0.2264    0.6684    0.6441 C   0  0  0  0  0  0  0  0  0  0  0  0
    0.3908    1.3656    1.7191 O   0  0  0  0  0  0  0  0  0  0  0  0
    1.2221   -0.2825    0.3142 N   0  0  0  0  0  0  0  0  0  0  0  0
    2.3453   -0.3960    1.2306 C   0  0  0  0  0  0  0  0  0  0  0  0
    3.3225   -1.3991    0.8129 C   0  0  0  0  0  0  0  0  0  0  0  0
    3.1258   -2.0466   -0.2442 O   0  0  0  0  0  0  0  0  0  0  0  0
    4.4556   -1.6462    1.5592 O   0  0  0  0  0  0  0  0  0  0  0  0
   -2.0086   -0.1571   -0.0305 C   0  0  0  0  0  0  0  0  0  0  0  0
   -1.7107   -1.5032   -0.5373 C   0  0  0  0  0  0  0  0  0  0  0  0
   -2.7613   -0.6243   -1.2311 C   0  0  0  0  0  0  0  0  0  0  0  0
   -1.0694    2.9412   -1.3176 H   0  0  0  0  0  0  0  0  0  0  0  0
   -1.6209    4.0526   -0.1148 H   0  0  0  0  0  0  0  0  0  0  0  0
   -0.7752    1.1792   -1.1609 H   0  0  0  0  0  0  0  0  0  0  0  0
    1.1280   -0.8300   -0.5394 H   0  0  0  0  0  0  0  0  0  0  0  0
    2.8037    0.6066    1.3259 H   0  0  0  0  0  0  0  0  0  0  0  0
    1.9203   -0.6477    2.2232 H   0  0  0  0  0  0  0  0  0  0  0  0
    5.2776   -2.1311    1.1856 H   0  0  0  0  0  0  0  0  0  0  0  0
   -2.6750   -0.1251    0.9034 H   0  0  0  0  0  0  0  0  0  0  0  0
   -2.1889   -2.3671    0.0111 H   0  0  0  0  0  0  0  0  0  0  0  0
   -0.8300   -1.7638   -1.1186 H   0  0  0  0  0  0  0  0  0  0  0  0
   -3.8131   -0.9113   -1.1750 H   0  0  0  0  0  0  0  0  0  0  0  0
   -2.4702   -0.1596   -2.1994 H   0  0  0  0  0  0  0  0  0  0  0  0
  1  2  1  0
  2  3  1  0
  3  4  1  0
  4  5  2  0
  4  6  1  0
  6  7  1  0
  7  8  1  0
  8  9  2  0
  8 10  1  0
  3 11  1  0
 11 12  1  0
 12 13  1  0
 13 11  1  0
  1 14  1  0
  1 15  1  0
  3 16  1  6
  6 17  1  0
  7 18  1  0
  7 19  1  0
 10 20  1  0
 11 21  1  0
 12 22  1  0
 12 23  1  0
 13 24  1  0
 13 25  1  0
M  END
$$$$

     RDKit          3D

 25 25  0  0  0  0  0  0  0  0999 V2000
   -1.6518    2.5886    0.9551 N   0  0  0  0  0  0  0  0  0  0  0  0
   -1.2876    1.3707    1.4138 O   0  0  0  0  0  0  0  0  0  0  0  0
   -0.8818    0.6048    0.3431 C   0  0  1  0  0  0  0  0  0  0  0  0
    0.5049    0.1330    0.5751 C   0  0  0  0  0  0  0  0  0  0  0  0
    1.0936    0.4599    1.6294 O   0  0  0  0  0  0  0  0  0  0  0  0
    1.1837   -0.6786   -0.3640 N   0  0  0  0  0  0  0  0  0  0  0  0
    2.5315   -1.1651   -0.1891 C   0  0  0  0  0  0  0  0  0  0  0  0
    3.5057   -0.0574   -0.0523 C   0  0  0  0  0  0  0  0  0  0  0  0
    3.0601    1.1236   -0.1028 O   0  0  0  0  0  0  0  0  0  0  0  0
    4.8364   -0.3306    0.1220 O   0  0  0  0  0  0  0  0  0  0  0  0
   -1.7281   -0.6713    0.2210 C   0  0  0  0  0  0  0  0  0  0  0  0
   -3.1807   -0.5068    0.0226 C   0  0  0  0  0  0  0  0  0  0  0  0
   -2.2924   -1.0241   -1.1129 C   0  0  0  0  0  0  0  0  0  0  0  0
   -1.0034    3.3451    1.2642 H   0  0  0  0  0  0  0  0  0  0  0  0
   -1.8742    2.6102   -0.0496 H   0  0  0  0  0  0  0  0  0  0  0  0
   -0.9622    1.1898   -0.6022 H   0  0  0  0  0  0  0  0  0  0  0  0
    0.6479   -0.9198   -1.2215 H   0  0  0  0  0  0  0  0  0  0  0  0
    2.8003   -1.7570   -1.0869 H   0  0  0  0  0  0  0  0  0  0  0  0
    2.6233   -1.8471    0.6769 H   0  0  0  0  0  0  0  0  0  0  0  0
    5.5276    0.3439   -0.1825 H   0  0  0  0  0  0  0  0  0  0  0  0
   -1.4229   -1.5382    0.8420 H   0  0  0  0  0  0  0  0  0  0  0  0
   -3.8724   -1.2651    0.4663 H   0  0  0  0  0  0  0  0  0  0  0  0
   -3.6340    0.4803   -0.1922 H   0  0  0  0  0  0  0  0  0  0  0  0
   -2.3907   -2.1078   -1.3861 H   0  0  0  0  0  0  0  0  0  0  0  0
   -2.1327   -0.3811   -1.9892 H   0  0  0  0  0  0  0  0  0  0  0  0
  1  2  1  0
  2  3  1  0
  3  4  1  0
  4  5  2  0
  4  6  1  0
  6  7  1  0
  7  8  1  0
  8  9  2  0
  8 10  1  0
  3 11  1  0
 11 12  1  0
 12 13  1  0
 13 11  1  0
  1 14  1  0
  1 15  1  0
  3 16  1  6
  6 17  1  0
  7 18  1  0
  7 19  1  0
 10 20  1  0
 11 21  1  0
 12 22  1  0
 12 23  1  0
 13 24  1  0
 13 25  1  0
M  END
$$$$

     RDKit          3D

 25 25  0  0  0  0  0  0  0  0999 V2000
   -2.2362    2.3649   -1.0928 N   0  0  0  0  0  0  0  0  0  0  0  0
   -1.9559    1.6325   -0.0115 O   0  0  0  0  0  0  0  0  0  0  0  0
   -0.9333    0.7115   -0.2099 C   0  0  1  0  0  0  0  0  0  0  0  0
    0.1901    0.9187    0.7366 C   0  0  0  0  0  0  0  0  0  0  0  0
    0.1132    1.8455    1.5708 O   0  0  0  0  0  0  0  0  0  0  0  0
    1.3383    0.0952    0.7148 N   0  0  0  0  0  0  0  0  0  0  0  0
    2.4492    0.2648    1.6173 C   0  0  0  0  0  0  0  0  0  0  0  0
    3.4962   -0.7479    1.3472 C   0  0  0  0  0  0  0  0  0  0  0  0
    3.3259   -1.5906    0.4285 O   0  0  0  0  0  0  0  0  0  0  0  0
    4.6643   -0.8103    2.0660 O   0  0  0  0  0  0  0  0  0  0  0  0
   -1.5699   -0.6570   -0.0252 C   0  0  0  0  0  0  0  0  0  0  0  0
   -2.6988   -0.9141   -1.0145 C   0  0  0  0  0  0  0  0  0  0  0  0
   -1.4335   -1.7168   -1.0161 C   0  0  0  0  0  0  0  0  0  0  0  0
   -3.2749    2.2550   -1.2708 H   0  0  0  0  0  0  0  0  0  0  0  0
   -2.1148    3.3730   -0.8324 H   0  0  0  0  0  0  0  0  0  0  0  0
   -0.5207    0.7391   -1.2348 H   0  0  0  0  0  0  0  0  0  0  0  0
    1.3742   -0.6730    0.0048 H   0  0  0  0  0  0  0  0  0  0  0  0
    2.9009    1.2728    1.5595 H   0  0  0  0  0  0  0  0  0  0  0  0
    2.1003    0.0919    2.6699 H   0  0  0  0  0  0  0  0  0  0  0  0
    5.3250   -1.5731    1.9538 H   0  0  0  0  0  0  0  0  0  0  0  0
   -1.8180   -0.8825    1.0364 H   0  0  0  0  0  0  0  0  0  0  0  0
   -2.8117   -0.2406   -1.8831 H   0  0  0  0  0  0  0  0  0  0  0  0
   -3.6418   -1.3317   -0.6287 H   0  0  0  0  0  0  0  0  0  0  0  0
   -1.5443   -2.7681   -0.6302 H   0  0  0  0  0  0  0  0  0  0  0  0
   -0.7237   -1.6591   -1.8549 H   0  0  0  0  0  0  0  0  0  0  0  0
  1  2  1  0
  2  3  1  0
  3  4  1  0
  4  5  2  0
  4  6  1  0
  6  7  1  0
  7  8  1  0
  8  9  2  0
  8 10  1  0
  3 11  1  0
 11 12  1  0
 12 13  1  0
 13 11  1  0
  1 14  1  0
  1 15  1  0
  3 16  1  6
  6 17  1  0
  7 18  1  0
  7 19  1  0
 10 20  1  0
 11 21  1  0
 12 22  1  0
 12 23  1  0
 13 24  1  0
 13 25  1  0
M  END
$$$$

     RDKit          3D

 25 25  0  0  0  0  0  0  0  0999 V2000
   -1.6464    1.6545   -0.9364 N   0  0  0  0  0  0  0  0  0  0  0  0
   -1.7374    0.3851   -1.3437 O   0  0  0  0  0  0  0  0  0  0  0  0
   -0.8479   -0.4660   -0.6632 C   0  0  1  0  0  0  0  0  0  0  0  0
    0.4147    0.3105   -0.5778 C   0  0  0  0  0  0  0  0  0  0  0  0
    0.7187    1.0226   -1.5509 O   0  0  0  0  0  0  0  0  0  0  0  0
    1.3009    0.2575    0.5765 N   0  0  0  0  0  0  0  0  0  0  0  0
    2.4113    1.1642    0.5048 C   0  0  0  0  0  0  0  0  0  0  0  0
    3.7156    0.5047    0.4894 C   0  0  0  0  0  0  0  0  0  0  0  0
    4.6678    0.8761    1.1613 O   0  0  0  0  0  0  0  0  0  0  0  0
    3.8275   -0.6343   -0.3631 O   0  0  0  0  0  0  0  0  0  0  0  0
   -1.3616   -0.9509    0.6248 C   0  0  0  0  0  0  0  0  0  0  0  0
   -2.6894   -1.7328    0.4218 C   0  0  0  0  0  0  0  0  0  0  0  0
   -2.5404   -0.5280    1.3301 C   0  0  0  0  0  0  0  0  0  0  0  0
   -0.9432    1.7991   -0.1822 H   0  0  0  0  0  0  0  0  0  0  0  0
   -2.6068    1.9751   -0.6096 H   0  0  0  0  0  0  0  0  0  0  0  0
   -0.6359   -1.2834   -1.3648 H   0  0  0  0  0  0  0  0  0  0  0  0
    1.1088   -0.4193    1.2975 H   0  0  0  0  0  0  0  0  0  0  0  0
    2.3414    1.9259   -0.2598 H   0  0  0  0  0  0  0  0  0  0  0  0
    2.3687    1.7187    1.5149 H   0  0  0  0  0  0  0  0  0  0  0  0
    4.4968   -1.3361   -0.0532 H   0  0  0  0  0  0  0  0  0  0  0  0
   -0.5895   -1.5641    1.1877 H   0  0  0  0  0  0  0  0  0  0  0  0
   -2.7772   -2.7293    0.8218 H   0  0  0  0  0  0  0  0  0  0  0  0
   -3.2793   -1.5156   -0.4874 H   0  0  0  0  0  0  0  0  0  0  0  0
   -3.1204    0.3734    1.1071 H   0  0  0  0  0  0  0  0  0  0  0  0
   -2.5965   -0.8076    2.4158 H   0  0  0  0  0  0  0  0  0  0  0  0
  1  2  1  0
  2  3  1  0
  3  4  1  0
  4  5  2  0
  4  6  1  0
  6  7  1  0
  7  8  1  0
  8  9  2  0
  8 10  1  0
  3 11  1  0
 11 12  1  0
 12 13  1  0
 13 11  1  0
  1 14  1  0
  1 15  1  0
  3 16  1  6
  6 17  1  0
  7 18  1  0
  7 19  1  0
 10 20  1  0
 11 21  1  0
 12 22  1  0
 12 23  1  0
 13 24  1  0
 13 25  1  0
M  END
$$$$

     RDKit          3D

 25 25  0  0  0  0  0  0  0  0999 V2000
   -2.0733   -0.2236   -2.5166 N   0  0  0  0  0  0  0  0  0  0  0  0
   -1.8181    0.4079   -1.3481 O   0  0  0  0  0  0  0  0  0  0  0  0
   -0.9653   -0.3581   -0.5966 C   0  0  1  0  0  0  0  0  0  0  0  0
    0.3305    0.3470   -0.3210 C   0  0  0  0  0  0  0  0  0  0  0  0
    0.5746    1.4898   -0.7371 O   0  0  0  0  0  0  0  0  0  0  0  0
    1.3169   -0.3236    0.4482 N   0  0  0  0  0  0  0  0  0  0  0  0
    2.5995    0.2815    0.7640 C   0  0  0  0  0  0  0  0  0  0  0  0
    3.3132    0.5890   -0.4975 C   0  0  0  0  0  0  0  0  0  0  0  0
    2.7968    0.3257   -1.6027 O   0  0  0  0  0  0  0  0  0  0  0  0
    4.5797    1.1809   -0.4587 O   0  0  0  0  0  0  0  0  0  0  0  0
   -1.5278   -0.7600    0.7439 C   0  0  0  0  0  0  0  0  0  0  0  0
   -1.9060    0.3610    1.6929 C   0  0  0  0  0  0  0  0  0  0  0  0
   -2.9376   -0.5674    1.0890 C   0  0  0  0  0  0  0  0  0  0  0  0
   -1.2199   -0.1800   -3.1177 H   0  0  0  0  0  0  0  0  0  0  0  0
   -2.2560   -1.2589   -2.3575 H   0  0  0  0  0  0  0  0  0  0  0  0
   -0.6941   -1.3044   -1.1286 H   0  0  0  0  0  0  0  0  0  0  0  0
    1.0907   -1.2956    0.7936 H   0  0  0  0  0  0  0  0  0  0  0  0
    3.1661   -0.3715    1.4320 H   0  0  0  0  0  0  0  0  0  0  0  0
    2.4229    1.2555    1.2961 H   0  0  0  0  0  0  0  0  0  0  0  0
    4.8188    1.7598   -1.2713 H   0  0  0  0  0  0  0  0  0  0  0  0
   -0.9824   -1.5868    1.2262 H   0  0  0  0  0  0  0  0  0  0  0  0
   -1.7421    0.2299    2.7713 H   0  0  0  0  0  0  0  0  0  0  0  0
   -1.8126    1.3924    1.3087 H   0  0  0  0  0  0  0  0  0  0  0  0
   -3.6698   -0.0588    0.4489 H   0  0  0  0  0  0  0  0  0  0  0  0
   -3.4046   -1.3315    1.7546 H   0  0  0  0  0  0  0  0  0  0  0  0
  1  2  1  0
  2  3  1  0
  3  4  1  0
  4  5  2  0
  4  6  1  0
  6  7  1  0
  7  8  1  0
  8  9  2  0
  8 10  1  0
  3 11  1  0
 11 12  1  0
 12 13  1  0
 13 11  1  0
  1 14  1  0
  1 15  1  0
  3 16  1  6
  6 17  1  0
  7 18  1  0
  7 19  1  0
 10 20  1  0
 11 21  1  0
 12 22  1  0
 12 23  1  0
 13 24  1  0
 13 25  1  0
M  END
$$$$
