
     RDKit          3D

 22 23  0  0  0  0  0  0  0  0999 V2000
   -3.6642   -1.7696   -1.3226 O   0  0  0  0  0  0  0  0  0  0  0  0
   -2.9408   -1.0953   -0.5520 C   0  0  0  0  0  0  0  0  0  0  0  0
   -1.4794   -1.3011   -0.3906 C   0  0  0  0  0  0  0  0  0  0  0  0
   -1.1063   -0.2048    0.6007 C   0  0  1  0  0  0  0  0  0  0  0  0
    0.1788    0.4245    0.2827 C   0  0  0  0  0  0  0  0  0  0  0  0
    0.2822    1.6723    0.0319 O   0  0  0  0  0  0  0  0  0  0  0  0
    1.3710   -0.3320    0.2398 N   0  0  0  0  0  0  0  0  0  0  0  0
    2.6137    0.2885   -0.0700 C   0  0  0  0  0  0  0  0  0  0  0  0
    2.7878    1.5925   -0.3423 N   0  0  0  0  0  0  0  0  0  0  0  0
    4.0820    1.7700   -0.5767 N   0  0  0  0  0  0  0  0  0  0  0  0
    4.7327    0.6288   -0.4632 N   0  0  0  0  0  0  0  0  0  0  0  0
    3.8193   -0.2903   -0.1484 N   0  0  0  0  0  0  0  0  0  0  0  0
   -2.2401    0.7791    0.5553 C   0  0  0  0  0  0  0  0  0  0  0  0
   -3.4037   -0.0408    0.2776 N   0  0  0  0  0  0  0  0  0  0  0  0
   -0.9704   -1.1516   -1.3639 H   0  0  0  0  0  0  0  0  0  0  0  0
   -1.2329   -2.3112    0.0051 H   0  0  0  0  0  0  0  0  0  0  0  0
   -1.0724   -0.6887    1.6071 H   0  0  0  0  0  0  0  0  0  0  0  0
    1.3112   -1.3549    0.4414 H   0  0  0  0  0  0  0  0  0  0  0  0
    5.7466    0.4147   -0.5804 H   0  0  0  0  0  0  0  0  0  0  0  0
   -2.3371    1.2704    1.5537 H   0  0  0  0  0  0  0  0  0  0  0  0
   -2.0907    1.5693   -0.2054 H   0  0  0  0  0  0  0  0  0  0  0  0
   -4.3871    0.1301    0.6309 H   0  0  0  0  0  0  0  0  0  0  0  0
  1  2  2  0
  2  3  1  0
  3  4  1  0
  4  5  1  0
  5  6  2  0
  5  7  1  0
  7  8  1  0
  8  9  1  0
  9 10  2  0
 10 11  1  0
 11 12  1  0
  4 13  1  0
 13 14  1  0
 14  2  1  0
 12  8  2  0
  3 15  1  0
  3 16  1  0
  4 17  1  1
  7 18  1  0
 11 19  1  0
 13 20  1  0
 13 21  1  0
 14 22  1  0
M  END
$$$$

     RDKit          3D

 22 23  0  0  0  0  0  0  0  0999 V2000
   -3.9182   -0.3670   -1.9745 O   0  0  0  0  0  0  0  0  0  0  0  0
   -3.1098   -0.1208   -1.0517 C   0  0  0  0  0  0  0  0  0  0  0  0
   -1.6617    0.1456   -1.2439 C   0  0  0  0  0  0  0  0  0  0  0  0
   -1.1024   -0.3763    0.0682 C   0  0  1  0  0  0  0  0  0  0  0  0
    0.2717    0.0302    0.3143 C   0  0  0  0  0  0  0  0  0  0  0  0
    0.6819    0.7061    1.2875 O   0  0  0  0  0  0  0  0  0  0  0  0
    1.2612   -0.3768   -0.6434 N   0  0  0  0  0  0  0  0  0  0  0  0
    2.6209   -0.0422   -0.5096 C   0  0  0  0  0  0  0  0  0  0  0  0
    3.2108    0.6713    0.4704 N   0  0  0  0  0  0  0  0  0  0  0  0
    4.4861    0.7276    0.1781 N   0  0  0  0  0  0  0  0  0  0  0  0
    4.7426    0.0809   -0.9481 N   0  0  0  0  0  0  0  0  0  0  0  0
    3.5922   -0.3870   -1.3610 N   0  0  0  0  0  0  0  0  0  0  0  0
   -2.0981    0.1651    1.0534 C   0  0  0  0  0  0  0  0  0  0  0  0
   -3.3486   -0.0355    0.3454 N   0  0  0  0  0  0  0  0  0  0  0  0
   -1.2419   -0.3846   -2.1122 H   0  0  0  0  0  0  0  0  0  0  0  0
   -1.4833    1.2470   -1.2905 H   0  0  0  0  0  0  0  0  0  0  0  0
   -1.2400   -1.4907    0.0575 H   0  0  0  0  0  0  0  0  0  0  0  0
    0.9733   -0.9479   -1.4833 H   0  0  0  0  0  0  0  0  0  0  0  0
    5.6687   -0.0419   -1.4257 H   0  0  0  0  0  0  0  0  0  0  0  0
   -1.9490    1.2721    1.2087 H   0  0  0  0  0  0  0  0  0  0  0  0
   -2.0718   -0.3683    2.0286 H   0  0  0  0  0  0  0  0  0  0  0  0
   -4.2845   -0.1068    0.7937 H   0  0  0  0  0  0  0  0  0  0  0  0
  1  2  2  0
  2  3  1  0
  3  4  1  0
  4  5  1  0
  5  6  2  0
  5  7  1  0
  7  8  1  0
  8  9  1  0
  9 10  2  0
 10 11  1  0
 11 12  1  0
  4 13  1  0
 13 14  1  0
 14  2  1  0
 12  8  2  0
  3 15  1  0
  3 16  1  0
  4 17  1  6
  7 18  1  0
 11 19  1  0
 13 20  1  0
 13 21  1  0
 14 22  1  0
M  END
$$$$

     RDKit          3D

 22 23  0  0  0  0  0  0  0  0999 V2000
   -4.5099   -0.8368   -0.1941 O   0  0  0  0  0  0  0  0  0  0  0  0
   -3.3678   -0.3546   -0.0427 C   0  0  0  0  0  0  0  0  0  0  0  0
   -2.1495   -0.5852   -0.9000 C   0  0  0  0  0  0  0  0  0  0  0  0
   -1.0636   -0.4482    0.1393 C   0  0  1  0  0  0  0  0  0  0  0  0
    0.2749   -0.2976   -0.4406 C   0  0  0  0  0  0  0  0  0  0  0  0
    0.4454   -0.2899   -1.6824 O   0  0  0  0  0  0  0  0  0  0  0  0
    1.3762   -0.1601    0.4474 N   0  0  0  0  0  0  0  0  0  0  0  0
    2.6844   -0.0122   -0.0549 C   0  0  0  0  0  0  0  0  0  0  0  0
    3.8212    0.1275    0.6478 N   0  0  0  0  0  0  0  0  0  0  0  0
    4.8272    0.2369   -0.1733 N   0  0  0  0  0  0  0  0  0  0  0  0
    4.3624    0.1703   -1.4085 N   0  0  0  0  0  0  0  0  0  0  0  0
    3.0554    0.0183   -1.3460 N   0  0  0  0  0  0  0  0  0  0  0  0
   -1.5358    0.8225    0.8447 C   0  0  0  0  0  0  0  0  0  0  0  0
   -2.9498    0.5345    0.9876 N   0  0  0  0  0  0  0  0  0  0  0  0
   -2.1774   -1.5599   -1.3885 H   0  0  0  0  0  0  0  0  0  0  0  0
   -2.0824    0.2799   -1.5760 H   0  0  0  0  0  0  0  0  0  0  0  0
   -1.1542   -1.2648    0.8655 H   0  0  0  0  0  0  0  0  0  0  0  0
    1.2293   -0.1670    1.4876 H   0  0  0  0  0  0  0  0  0  0  0  0
    4.9246    0.2273   -2.2873 H   0  0  0  0  0  0  0  0  0  0  0  0
   -1.4379    1.6443    0.1140 H   0  0  0  0  0  0  0  0  0  0  0  0
   -1.0209    0.9841    1.7907 H   0  0  0  0  0  0  0  0  0  0  0  0
   -3.5519    0.9306    1.7405 H   0  0  0  0  0  0  0  0  0  0  0  0
  1  2  2  0
  2  3  1  0
  3  4  1  0
  4  5  1  0
  5  6  2  0
  5  7  1  0
  7  8  1  0
  8  9  1  0
  9 10  2  0
 10 11  1  0
 11 12  1  0
  4 13  1  0
 13 14  1  0
 14  2  1  0
 12  8  2  0
  3 15  1  0
  3 16  1  0
  4 17  1  1
  7 18  1  0
 11 19  1  0
 13 20  1  0
 13 21  1  0
 14 22  1  0
M  END
$$$$

     RDKit          3D

 22 23  0  0  0  0  0  0  0  0999 V2000
   -4.0630   -1.2442   -0.8608 O   0  0  0  0  0  0  0  0  0  0  0  0
   -3.1208   -0.6254   -0.3238 C   0  0  0  0  0  0  0  0  0  0  0  0
   -1.6888   -0.8107   -0.6648 C   0  0  0  0  0  0  0  0  0  0  0  0
   -1.0817   -0.5539    0.7245 C   0  0  1  0  0  0  0  0  0  0  0  0
    0.3566   -0.5002    0.6231 C   0  0  0  0  0  0  0  0  0  0  0  0
    1.0523   -1.3137    1.2647 O   0  0  0  0  0  0  0  0  0  0  0  0
    1.0126    0.4507   -0.1854 N   0  0  0  0  0  0  0  0  0  0  0  0
    2.4525    0.4964   -0.2802 C   0  0  0  0  0  0  0  0  0  0  0  0
    3.1965    1.3294   -0.9952 N   0  0  0  0  0  0  0  0  0  0  0  0
    4.4653    1.0213   -0.7920 N   0  0  0  0  0  0  0  0  0  0  0  0
    4.5357   -0.0083    0.0523 N   0  0  0  0  0  0  0  0  0  0  0  0
    3.2946   -0.3270    0.3638 N   0  0  0  0  0  0  0  0  0  0  0  0
   -1.7698    0.7503    1.0265 C   0  0  0  0  0  0  0  0  0  0  0  0
   -3.1549    0.3645    0.6971 N   0  0  0  0  0  0  0  0  0  0  0  0
   -1.3361    0.0242   -1.3031 H   0  0  0  0  0  0  0  0  0  0  0  0
   -1.4494   -1.7996   -1.0451 H   0  0  0  0  0  0  0  0  0  0  0  0
   -1.4818   -1.3175    1.3904 H   0  0  0  0  0  0  0  0  0  0  0  0
    0.4740    1.1479   -0.7376 H   0  0  0  0  0  0  0  0  0  0  0  0
    5.4419   -0.4332    0.3659 H   0  0  0  0  0  0  0  0  0  0  0  0
   -1.6694    1.0844    2.0557 H   0  0  0  0  0  0  0  0  0  0  0  0
   -1.4434    1.5067    0.3048 H   0  0  0  0  0  0  0  0  0  0  0  0
   -4.0228    0.7580    1.1448 H   0  0  0  0  0  0  0  0  0  0  0  0
  1  2  2  0
  2  3  1  0
  3  4  1  0
  4  5  1  0
  5  6  2  0
  5  7  1  0
  7  8  1  0
  8  9  1  0
  9 10  2  0
 10 11  1  0
 11 12  1  0
  4 13  1  0
 13 14  1  0
 14  2  1  0
 12  8  2  0
  3 15  1  0
  3 16  1  0
  4 17  1  1
  7 18  1  0
 11 19  1  0
 13 20  1  0
 13 21  1  0
 14 22  1  0
M  END
$$$$

     RDKit          3D

 22 23  0  0  0  0  0  0  0  0999 V2000
   -3.7331    1.6126    1.1183 O   0  0  0  0  0  0  0  0  0  0  0  0
   -2.8993    0.8366    0.5997 C   0  0  0  0  0  0  0  0  0  0  0  0
   -1.7099    1.2343   -0.1930 C   0  0  0  0  0  0  0  0  0  0  0  0
   -1.1717   -0.0037   -0.7760 C   0  0  1  0  0  0  0  0  0  0  0  0
    0.1554   -0.4136   -0.3600 C   0  0  0  0  0  0  0  0  0  0  0  0
    0.3108   -1.5262    0.2046 O   0  0  0  0  0  0  0  0  0  0  0  0
    1.3135    0.3910   -0.5602 N   0  0  0  0  0  0  0  0  0  0  0  0
    2.6110   -0.0444   -0.1366 C   0  0  0  0  0  0  0  0  0  0  0  0
    2.9594   -1.1756    0.4686 N   0  0  0  0  0  0  0  0  0  0  0  0
    4.2650   -1.1112    0.6513 N   0  0  0  0  0  0  0  0  0  0  0  0
    4.7477    0.0360    0.1744 N   0  0  0  0  0  0  0  0  0  0  0  0
    3.7176    0.6980   -0.3151 N   0  0  0  0  0  0  0  0  0  0  0  0
   -2.2157   -1.0611   -0.4838 C   0  0  0  0  0  0  0  0  0  0  0  0
   -2.9355   -0.5795    0.6732 N   0  0  0  0  0  0  0  0  0  0  0  0
   -1.0398    1.7842    0.4870 H   0  0  0  0  0  0  0  0  0  0  0  0
   -2.0184    1.9735   -0.9833 H   0  0  0  0  0  0  0  0  0  0  0  0
   -1.1602    0.1015   -1.9004 H   0  0  0  0  0  0  0  0  0  0  0  0
    1.1610    1.2954   -1.0234 H   0  0  0  0  0  0  0  0  0  0  0  0
    5.7541    0.3206    0.2014 H   0  0  0  0  0  0  0  0  0  0  0  0
   -1.7635   -2.0593   -0.3295 H   0  0  0  0  0  0  0  0  0  0  0  0
   -2.9693   -1.1163   -1.3210 H   0  0  0  0  0  0  0  0  0  0  0  0
   -3.3789   -1.1926    1.3959 H   0  0  0  0  0  0  0  0  0  0  0  0
  1  2  2  0
  2  3  1  0
  3  4  1  0
  4  5  1  0
  5  6  2  0
  5  7  1  0
  7  8  1  0
  8  9  1  0
  9 10  2  0
 10 11  1  0
 11 12  1  0
  4 13  1  0
 13 14  1  0
 14  2  1  0
 12  8  2  0
  3 15  1  0
  3 16  1  0
  4 17  1  6
  7 18  1  0
 11 19  1  0
 13 20  1  0
 13 21  1  0
 14 22  1  0
M  END
$$$$

     RDKit          3D

 22 23  0  0  0  0  0  0  0  0999 V2000
   -3.8837    0.1695   -1.9378 O   0  0  0  0  0  0  0  0  0  0  0  0
   -3.0688    0.0873   -0.9843 C   0  0  0  0  0  0  0  0  0  0  0  0
   -1.6057    0.3183   -1.0951 C   0  0  0  0  0  0  0  0  0  0  0  0
   -1.0936   -0.5371    0.0689 C   0  0  1  0  0  0  0  0  0  0  0  0
    0.2888   -0.2166    0.4246 C   0  0  0  0  0  0  0  0  0  0  0  0
    0.5880    0.1950    1.5772 O   0  0  0  0  0  0  0  0  0  0  0  0
    1.3187   -0.3606   -0.5137 N   0  0  0  0  0  0  0  0  0  0  0  0
    2.6839   -0.0491   -0.1785 C   0  0  0  0  0  0  0  0  0  0  0  0
    3.7622   -0.1409   -0.9756 N   0  0  0  0  0  0  0  0  0  0  0  0
    4.8178    0.2395   -0.2777 N   0  0  0  0  0  0  0  0  0  0  0  0
    4.4289    0.5632    0.9233 N   0  0  0  0  0  0  0  0  0  0  0  0
    3.1407    0.3938    0.9982 N   0  0  0  0  0  0  0  0  0  0  0  0
   -2.0848   -0.1028    1.1331 C   0  0  0  0  0  0  0  0  0  0  0  0
   -3.3398   -0.2336    0.3754 N   0  0  0  0  0  0  0  0  0  0  0  0
   -1.3988    1.3676   -0.8141 H   0  0  0  0  0  0  0  0  0  0  0  0
   -1.1855    0.0087   -2.0539 H   0  0  0  0  0  0  0  0  0  0  0  0
   -1.2261   -1.6206   -0.1900 H   0  0  0  0  0  0  0  0  0  0  0  0
    1.0897   -0.6999   -1.4723 H   0  0  0  0  0  0  0  0  0  0  0  0
    5.0192    0.9033    1.7139 H   0  0  0  0  0  0  0  0  0  0  0  0
   -2.0668   -0.7363    2.0183 H   0  0  0  0  0  0  0  0  0  0  0  0
   -1.9318    0.9623    1.3026 H   0  0  0  0  0  0  0  0  0  0  0  0
   -4.2527   -0.5111    0.7737 H   0  0  0  0  0  0  0  0  0  0  0  0
  1  2  2  0
  2  3  1  0
  3  4  1  0
  4  5  1  0
  5  6  2  0
  5  7  1  0
  7  8  1  0
  8  9  1  0
  9 10  2  0
 10 11  1  0
 11 12  1  0
  4 13  1  0
 13 14  1  0
 14  2  1  0
 12  8  2  0
  3 15  1  0
  3 16  1  0
  4 17  1  6
  7 18  1  0
 11 19  1  0
 13 20  1  0
 13 21  1  0
 14 22  1  0
M  END
$$$$

     RDKit          3D

 22 23  0  0  0  0  0  0  0  0999 V2000
   -4.5975    0.0153   -0.6751 O   0  0  0  0  0  0  0  0  0  0  0  0
   -3.4001    0.2287   -0.3737 C   0  0  0  0  0  0  0  0  0  0  0  0
   -2.1575   -0.2139   -1.0639 C   0  0  0  0  0  0  0  0  0  0  0  0
   -1.1865   -0.3000    0.0957 C   0  0  1  0  0  0  0  0  0  0  0  0
    0.2104   -0.3272   -0.3352 C   0  0  0  0  0  0  0  0  0  0  0  0
    0.5152   -0.2818   -1.5442 O   0  0  0  0  0  0  0  0  0  0  0  0
    1.2532   -0.4065    0.6240 N   0  0  0  0  0  0  0  0  0  0  0  0
    2.5987   -0.4303    0.1583 C   0  0  0  0  0  0  0  0  0  0  0  0
    3.0250   -0.3852   -1.1299 N   0  0  0  0  0  0  0  0  0  0  0  0
    4.3425   -0.4323   -1.0697 N   0  0  0  0  0  0  0  0  0  0  0  0
    4.7625   -0.5041    0.1815 N   0  0  0  0  0  0  0  0  0  0  0  0
    3.6870   -0.5027    0.9360 N   0  0  0  0  0  0  0  0  0  0  0  0
   -1.5206    1.0128    0.8162 C   0  0  0  0  0  0  0  0  0  0  0  0
   -2.9745    0.9818    0.7562 N   0  0  0  0  0  0  0  0  0  0  0  0
   -1.7745    0.5813   -1.7443 H   0  0  0  0  0  0  0  0  0  0  0  0
   -2.2829   -1.1839   -1.5786 H   0  0  0  0  0  0  0  0  0  0  0  0
   -1.4731   -1.1669    0.7192 H   0  0  0  0  0  0  0  0  0  0  0  0
    1.0602   -0.4472    1.6493 H   0  0  0  0  0  0  0  0  0  0  0  0
    5.7591   -0.5526    0.5066 H   0  0  0  0  0  0  0  0  0  0  0  0
   -1.1310    1.0308    1.8314 H   0  0  0  0  0  0  0  0  0  0  0  0
   -1.1325    1.8306    0.1764 H   0  0  0  0  0  0  0  0  0  0  0  0
   -3.5830    1.4533    1.4552 H   0  0  0  0  0  0  0  0  0  0  0  0
  1  2  2  0
  2  3  1  0
  3  4  1  0
  4  5  1  0
  5  6  2  0
  5  7  1  0
  7  8  1  0
  8  9  1  0
  9 10  2  0
 10 11  1  0
 11 12  1  0
  4 13  1  0
 13 14  1  0
 14  2  1  0
 12  8  2  0
  3 15  1  0
  3 16  1  0
  4 17  1  1
  7 18  1  0
 11 19  1  0
 13 20  1  0
 13 21  1  0
 14 22  1  0
M  END
$$$$

     RDKit          3D

 22 23  0  0  0  0  0  0  0  0999 V2000
   -4.0096    1.7764   -0.4726 O   0  0  0  0  0  0  0  0  0  0  0  0
   -3.0781    0.9914   -0.1955 C   0  0  0  0  0  0  0  0  0  0  0  0
   -1.6513    1.1820   -0.5435 C   0  0  0  0  0  0  0  0  0  0  0  0
   -1.1872   -0.2530   -0.6624 C   0  0  1  0  0  0  0  0  0  0  0  0
    0.2707   -0.3958   -0.6809 C   0  0  0  0  0  0  0  0  0  0  0  0
    0.8022   -0.9258   -1.6901 O   0  0  0  0  0  0  0  0  0  0  0  0
    1.0910    0.0291    0.3686 N   0  0  0  0  0  0  0  0  0  0  0  0
    2.4958   -0.1447    0.2747 C   0  0  0  0  0  0  0  0  0  0  0  0
    3.1354   -0.6987   -0.7640 N   0  0  0  0  0  0  0  0  0  0  0  0
    4.4265   -0.6990   -0.5157 N   0  0  0  0  0  0  0  0  0  0  0  0
    4.6543   -0.1552    0.6692 N   0  0  0  0  0  0  0  0  0  0  0  0
    3.4652    0.1856    1.1546 N   0  0  0  0  0  0  0  0  0  0  0  0
   -1.8281   -0.8509    0.5805 C   0  0  0  0  0  0  0  0  0  0  0  0
   -3.1651   -0.2396    0.5020 N   0  0  0  0  0  0  0  0  0  0  0  0
   -1.1737    1.6729    0.3372 H   0  0  0  0  0  0  0  0  0  0  0  0
   -1.5100    1.7525   -1.4784 H   0  0  0  0  0  0  0  0  0  0  0  0
   -1.6689   -0.6996   -1.5339 H   0  0  0  0  0  0  0  0  0  0  0  0
    0.6508    0.4758    1.2206 H   0  0  0  0  0  0  0  0  0  0  0  0
    5.5854   -0.0080    1.1577 H   0  0  0  0  0  0  0  0  0  0  0  0
   -1.8811   -1.9422    0.5458 H   0  0  0  0  0  0  0  0  0  0  0  0
   -1.3618   -0.4334    1.4853 H   0  0  0  0  0  0  0  0  0  0  0  0
   -4.0625   -0.6198    0.8864 H   0  0  0  0  0  0  0  0  0  0  0  0
  1  2  2  0
  2  3  1  0
  3  4  1  0
  4  5  1  0
  5  6  2  0
  5  7  1  0
  7  8  1  0
  8  9  1  0
  9 10  2  0
 10 11  1  0
 11 12  1  0
  4 13  1  0
 13 14  1  0
 14  2  1  0
 12  8  2  0
  3 15  1  0
  3 16  1  0
  4 17  1  6
  7 18  1  0
 11 19  1  0
 13 20  1  0
 13 21  1  0
 14 22  1  0
M  END
$$$$
