
     RDKit          3D

 27 27  0  0  0  0  0  0  0  0999 V2000
    4.4585    0.7079    0.2502 N   0  0  0  0  0  0  0  0  0  0  0  0
    3.7611    0.1773   -0.7357 O   0  0  0  0  0  0  0  0  0  0  0  0
    3.0964   -1.0477   -0.3691 C   0  0  0  0  0  0  0  0  0  0  0  0
    1.6907   -0.6318   -0.8128 C   0  0  0  0  0  0  0  0  0  0  0  0
    1.5515   -0.0738   -1.8864 O   0  0  0  0  0  0  0  0  0  0  0  0
    0.6227   -0.8608    0.0741 N   0  0  0  0  0  0  0  0  0  0  0  0
   -0.5526   -0.0291    0.0565 C   0  0  2  0  0  0  0  0  0  0  0  0
   -1.2765   -0.0640    1.4027 C   0  0  0  0  0  0  0  0  0  0  0  0
   -2.1822    0.9682    1.4913 O   0  0  0  0  0  0  0  0  0  0  0  0
   -3.0997    1.0198    0.4637 C   0  0  0  0  0  0  0  0  0  0  0  0
   -2.4876    0.9988   -0.9055 C   0  0  0  0  0  0  0  0  0  0  0  0
   -1.5545   -0.2135   -1.0139 C   0  0  2  0  0  0  0  0  0  0  0  0
   -2.2854   -1.3863   -0.8390 O   0  0  0  0  0  0  0  0  0  0  0  0
    5.1756    1.3516   -0.0809 H   0  0  0  0  0  0  0  0  0  0  0  0
    4.7736    0.1250    1.0127 H   0  0  0  0  0  0  0  0  0  0  0  0
    3.5278   -1.8551   -0.9176 H   0  0  0  0  0  0  0  0  0  0  0  0
    3.1735   -1.1763    0.7012 H   0  0  0  0  0  0  0  0  0  0  0  0
    0.6903   -1.6088    0.7811 H   0  0  0  0  0  0  0  0  0  0  0  0
   -0.2170    1.0729   -0.0310 H   0  0  0  0  0  0  0  0  0  0  0  0
   -1.7003   -1.0669    1.5888 H   0  0  0  0  0  0  0  0  0  0  0  0
   -0.5095    0.1076    2.1912 H   0  0  0  0  0  0  0  0  0  0  0  0
   -3.6241    2.0084    0.5660 H   0  0  0  0  0  0  0  0  0  0  0  0
   -3.9208    0.2644    0.5676 H   0  0  0  0  0  0  0  0  0  0  0  0
   -3.2981    0.9506   -1.6451 H   0  0  0  0  0  0  0  0  0  0  0  0
   -1.8485    1.8971   -1.0025 H   0  0  0  0  0  0  0  0  0  0  0  0
   -1.0904   -0.2662   -2.0187 H   0  0  0  0  0  0  0  0  0  0  0  0
   -2.8745   -1.3693   -0.0581 H   0  0  0  0  0  0  0  0  0  0  0  0
  1  2  1  0
  2  3  1  0
  3  4  1  0
  4  5  2  0
  4  6  1  0
  6  7  1  0
  7  8  1  0
  8  9  1  0
  9 10  1  0
 10 11  1  0
 11 12  1  0
 12 13  1  0
 12  7  1  0
  1 14  1  0
  1 15  1  0
  3 16  1  0
  3 17  1  0
  6 18  1  0
  7 19  1  6
  8 20  1  0
  8 21  1  0
 10 22  1  0
 10 23  1  0
 11 24  1  0
 11 25  1  0
 12 26  1  6
 13 27  1  0
M  END
$$$$

     RDKit          3D

 27 27  0  0  0  0  0  0  0  0999 V2000
    4.5064    0.7708    0.0021 N   0  0  0  0  0  0  0  0  0  0  0  0
    4.0112   -0.1065   -0.9545 O   0  0  0  0  0  0  0  0  0  0  0  0
    3.0778   -0.8822   -0.2431 C   0  0  0  0  0  0  0  0  0  0  0  0
    1.7523   -0.3766   -0.6749 C   0  0  0  0  0  0  0  0  0  0  0  0
    1.7390    0.4301   -1.6972 O   0  0  0  0  0  0  0  0  0  0  0  0
    0.5319   -0.6986   -0.0970 N   0  0  0  0  0  0  0  0  0  0  0  0
   -0.6664   -0.0552   -0.6447 C   0  0  2  0  0  0  0  0  0  0  0  0
   -0.6872    1.2799    0.0468 C   0  0  0  0  0  0  0  0  0  0  0  0
   -1.8672    1.8975    0.2037 O   0  0  0  0  0  0  0  0  0  0  0  0
   -2.9807    1.2112   -0.2306 C   0  0  0  0  0  0  0  0  0  0  0  0
   -3.0205   -0.2386    0.1792 C   0  0  0  0  0  0  0  0  0  0  0  0
   -1.8192   -0.9303   -0.3896 C   0  0  2  0  0  0  0  0  0  0  0  0
   -1.4918   -1.9927    0.4777 O   0  0  0  0  0  0  0  0  0  0  0  0
    4.9553    1.5867   -0.5298 H   0  0  0  0  0  0  0  0  0  0  0  0
    3.6035    1.2122    0.4626 H   0  0  0  0  0  0  0  0  0  0  0  0
    3.2095   -1.9159   -0.7273 H   0  0  0  0  0  0  0  0  0  0  0  0
    3.2508   -0.9873    0.7979 H   0  0  0  0  0  0  0  0  0  0  0  0
    0.4938   -1.3013    0.7416 H   0  0  0  0  0  0  0  0  0  0  0  0
   -0.4556    0.1451   -1.7094 H   0  0  0  0  0  0  0  0  0  0  0  0
   -0.1818    1.1942    1.0422 H   0  0  0  0  0  0  0  0  0  0  0  0
    0.0038    1.9635   -0.5319 H   0  0  0  0  0  0  0  0  0  0  0  0
   -3.1276    1.3194   -1.3208 H   0  0  0  0  0  0  0  0  0  0  0  0
   -3.8596    1.6963    0.2566 H   0  0  0  0  0  0  0  0  0  0  0  0
   -3.0035   -0.3278    1.2753 H   0  0  0  0  0  0  0  0  0  0  0  0
   -3.9506   -0.6636   -0.2349 H   0  0  0  0  0  0  0  0  0  0  0  0
   -2.1268   -1.4014   -1.3552 H   0  0  0  0  0  0  0  0  0  0  0  0
   -1.8967   -2.8289    0.1564 H   0  0  0  0  0  0  0  0  0  0  0  0
  1  2  1  0
  2  3  1  0
  3  4  1  0
  4  5  2  0
  4  6  1  0
  6  7  1  0
  7  8  1  0
  8  9  1  0
  9 10  1  0
 10 11  1  0
 11 12  1  0
 12 13  1  0
 12  7  1  0
  1 14  1  0
  1 15  1  0
  3 16  1  0
  3 17  1  0
  6 18  1  0
  7 19  1  6
  8 20  1  0
  8 21  1  0
 10 22  1  0
 10 23  1  0
 11 24  1  0
 11 25  1  0
 12 26  1  6
 13 27  1  0
M  END
$$$$

     RDKit          3D

 27 27  0  0  0  0  0  0  0  0999 V2000
    5.2819   -0.0295   -0.2916 N   0  0  0  0  0  0  0  0  0  0  0  0
    4.0795   -0.4997   -0.7281 O   0  0  0  0  0  0  0  0  0  0  0  0
    3.0923    0.2286   -0.1026 C   0  0  0  0  0  0  0  0  0  0  0  0
    1.7570   -0.2627   -0.5601 C   0  0  0  0  0  0  0  0  0  0  0  0
    1.6635   -1.2094   -1.3979 O   0  0  0  0  0  0  0  0  0  0  0  0
    0.5480    0.2911   -0.0923 N   0  0  0  0  0  0  0  0  0  0  0  0
   -0.7281   -0.1841   -0.5345 C   0  0  2  0  0  0  0  0  0  0  0  0
   -1.5404    0.8868   -1.2130 C   0  0  0  0  0  0  0  0  0  0  0  0
   -2.8481    0.5264   -1.3865 O   0  0  0  0  0  0  0  0  0  0  0  0
   -3.4962    0.1436   -0.2361 C   0  0  0  0  0  0  0  0  0  0  0  0
   -2.8281   -1.1260    0.2535 C   0  0  0  0  0  0  0  0  0  0  0  0
   -1.4464   -0.7398    0.6908 C   0  0  2  0  0  0  0  0  0  0  0  0
   -1.4609    0.2590    1.6603 O   0  0  0  0  0  0  0  0  0  0  0  0
    5.5008   -0.5551    0.5810 H   0  0  0  0  0  0  0  0  0  0  0  0
    5.1524    0.9717    0.0115 H   0  0  0  0  0  0  0  0  0  0  0  0
    3.2333    1.3055   -0.2911 H   0  0  0  0  0  0  0  0  0  0  0  0
    3.1139    0.0948    1.0050 H   0  0  0  0  0  0  0  0  0  0  0  0
    0.5648    1.0832    0.6076 H   0  0  0  0  0  0  0  0  0  0  0  0
   -0.6031   -1.0099   -1.2615 H   0  0  0  0  0  0  0  0  0  0  0  0
   -1.5029    1.8317   -0.6434 H   0  0  0  0  0  0  0  0  0  0  0  0
   -1.0952    1.0070   -2.2440 H   0  0  0  0  0  0  0  0  0  0  0  0
   -3.3685    0.9402    0.5169 H   0  0  0  0  0  0  0  0  0  0  0  0
   -4.5577   -0.0509   -0.4775 H   0  0  0  0  0  0  0  0  0  0  0  0
   -3.4125   -1.6376    1.0355 H   0  0  0  0  0  0  0  0  0  0  0  0
   -2.7271   -1.8229   -0.6081 H   0  0  0  0  0  0  0  0  0  0  0  0
   -0.8734   -1.6057    1.0615 H   0  0  0  0  0  0  0  0  0  0  0  0
   -1.4986    1.1635    1.3023 H   0  0  0  0  0  0  0  0  0  0  0  0
  1  2  1  0
  2  3  1  0
  3  4  1  0
  4  5  2  0
  4  6  1  0
  6  7  1  0
  7  8  1  0
  8  9  1  0
  9 10  1  0
 10 11  1  0
 11 12  1  0
 12 13  1  0
 12  7  1  0
  1 14  1  0
  1 15  1  0
  3 16  1  0
  3 17  1  0
  6 18  1  0
  7 19  1  6
  8 20  1  0
  8 21  1  0
 10 22  1  0
 10 23  1  0
 11 24  1  0
 11 25  1  0
 12 26  1  1
 13 27  1  0
M  END
$$$$

     RDKit          3D

 27 27  0  0  0  0  0  0  0  0999 V2000
   -4.1674    0.6288    0.2880 N   0  0  0  0  0  0  0  0  0  0  0  0
   -3.2045   -0.1351    0.8488 O   0  0  0  0  0  0  0  0  0  0  0  0
   -3.0692   -1.3689    0.0925 C   0  0  0  0  0  0  0  0  0  0  0  0
   -1.6045   -1.2179   -0.4006 C   0  0  0  0  0  0  0  0  0  0  0  0
   -1.3363   -1.7296   -1.4626 O   0  0  0  0  0  0  0  0  0  0  0  0
   -0.7240   -0.4972    0.4070 N   0  0  0  0  0  0  0  0  0  0  0  0
    0.5167   -0.0569   -0.0381 C   0  0  2  0  0  0  0  0  0  0  0  0
    1.4226   -0.8347   -0.8994 C   0  0  0  0  0  0  0  0  0  0  0  0
    2.1630    0.1510   -1.6554 O   0  0  0  0  0  0  0  0  0  0  0  0
    2.9378    0.9400   -0.8674 C   0  0  0  0  0  0  0  0  0  0  0  0
    2.3087    1.5140    0.3648 C   0  0  0  0  0  0  0  0  0  0  0  0
    1.3548    0.5650    1.0549 C   0  0  2  0  0  0  0  0  0  0  0  0
    2.1384   -0.4349    1.7069 O   0  0  0  0  0  0  0  0  0  0  0  0
   -4.3555    0.3215   -0.6679 H   0  0  0  0  0  0  0  0  0  0  0  0
   -4.3093    1.5214    0.6654 H   0  0  0  0  0  0  0  0  0  0  0  0
   -3.7349   -1.3276   -0.7503 H   0  0  0  0  0  0  0  0  0  0  0  0
   -3.1672   -2.1591    0.8232 H   0  0  0  0  0  0  0  0  0  0  0  0
   -1.0061   -0.2861    1.3697 H   0  0  0  0  0  0  0  0  0  0  0  0
    0.2538    0.9216   -0.7346 H   0  0  0  0  0  0  0  0  0  0  0  0
    2.2059   -1.3795   -0.3709 H   0  0  0  0  0  0  0  0  0  0  0  0
    0.9479   -1.4182   -1.7032 H   0  0  0  0  0  0  0  0  0  0  0  0
    3.9002    0.4177   -0.6127 H   0  0  0  0  0  0  0  0  0  0  0  0
    3.2674    1.8294   -1.4877 H   0  0  0  0  0  0  0  0  0  0  0  0
    3.1235    1.7244    1.0937 H   0  0  0  0  0  0  0  0  0  0  0  0
    1.7575    2.4627    0.1682 H   0  0  0  0  0  0  0  0  0  0  0  0
    0.7435    1.1181    1.7692 H   0  0  0  0  0  0  0  0  0  0  0  0
    1.6371   -1.2698    1.7237 H   0  0  0  0  0  0  0  0  0  0  0  0
  1  2  1  0
  2  3  1  0
  3  4  1  0
  4  5  2  0
  4  6  1  0
  6  7  1  0
  7  8  1  0
  8  9  1  0
  9 10  1  0
 10 11  1  0
 11 12  1  0
 12 13  1  0
 12  7  1  0
  1 14  1  0
  1 15  1  0
  3 16  1  0
  3 17  1  0
  6 18  1  0
  7 19  1  6
  8 20  1  0
  8 21  1  0
 10 22  1  0
 10 23  1  0
 11 24  1  0
 11 25  1  0
 12 26  1  1
 13 27  1  0
M  END
$$$$

     RDKit          3D

 27 27  0  0  0  0  0  0  0  0999 V2000
    5.2765    0.2233    0.2873 N   0  0  0  0  0  0  0  0  0  0  0  0
    4.0589    0.6669    0.6754 O   0  0  0  0  0  0  0  0  0  0  0  0
    3.1117   -0.1396    0.0957 C   0  0  0  0  0  0  0  0  0  0  0  0
    1.7238    0.2489    0.4485 C   0  0  0  0  0  0  0  0  0  0  0  0
    1.5200    1.2337    1.2104 O   0  0  0  0  0  0  0  0  0  0  0  0
    0.5800   -0.4371   -0.0311 N   0  0  0  0  0  0  0  0  0  0  0  0
   -0.7656   -0.0913    0.2872 C   0  0  2  0  0  0  0  0  0  0  0  0
   -1.5079   -1.1723    1.0446 C   0  0  0  0  0  0  0  0  0  0  0  0
   -2.6212   -0.6390    1.6335 O   0  0  0  0  0  0  0  0  0  0  0  0
   -3.0589    0.5474    1.1119 C   0  0  0  0  0  0  0  0  0  0  0  0
   -2.9805    0.6399   -0.3843 C   0  0  0  0  0  0  0  0  0  0  0  0
   -1.6111    0.2537   -0.9112 C   0  0  2  0  0  0  0  0  0  0  0  0
   -1.8028   -0.9337   -1.6466 O   0  0  0  0  0  0  0  0  0  0  0  0
    6.0229    0.9311    0.4045 H   0  0  0  0  0  0  0  0  0  0  0  0
    5.2704   -0.2356   -0.6401 H   0  0  0  0  0  0  0  0  0  0  0  0
    3.3442   -1.1827    0.3336 H   0  0  0  0  0  0  0  0  0  0  0  0
    3.2216   -0.0338   -1.0130 H   0  0  0  0  0  0  0  0  0  0  0  0
    0.7698   -1.2617   -0.6698 H   0  0  0  0  0  0  0  0  0  0  0  0
   -0.7398    0.7982    0.9670 H   0  0  0  0  0  0  0  0  0  0  0  0
   -0.8164   -1.6887    1.7126 H   0  0  0  0  0  0  0  0  0  0  0  0
   -1.8349   -1.9160    0.2631 H   0  0  0  0  0  0  0  0  0  0  0  0
   -2.5691    1.4274    1.6154 H   0  0  0  0  0  0  0  0  0  0  0  0
   -4.1440    0.6495    1.3815 H   0  0  0  0  0  0  0  0  0  0  0  0
   -3.1023    1.7297   -0.6430 H   0  0  0  0  0  0  0  0  0  0  0  0
   -3.7967    0.0669   -0.8249 H   0  0  0  0  0  0  0  0  0  0  0  0
   -1.1727    0.9931   -1.5774 H   0  0  0  0  0  0  0  0  0  0  0  0
   -2.3761   -0.6778   -2.4186 H   0  0  0  0  0  0  0  0  0  0  0  0
  1  2  1  0
  2  3  1  0
  3  4  1  0
  4  5  2  0
  4  6  1  0
  6  7  1  0
  7  8  1  0
  8  9  1  0
  9 10  1  0
 10 11  1  0
 11 12  1  0
 12 13  1  0
 12  7  1  0
  1 14  1  0
  1 15  1  0
  3 16  1  0
  3 17  1  0
  6 18  1  0
  7 19  1  1
  8 20  1  0
  8 21  1  0
 10 22  1  0
 10 23  1  0
 11 24  1  0
 11 25  1  0
 12 26  1  6
 13 27  1  0
M  END
$$$$

     RDKit          3D

 27 27  0  0  0  0  0  0  0  0999 V2000
    4.5387   -1.2464    0.1178 N   0  0  0  0  0  0  0  0  0  0  0  0
    3.2429   -0.8785    0.1932 O   0  0  0  0  0  0  0  0  0  0  0  0
    3.1446    0.4597   -0.1049 C   0  0  0  0  0  0  0  0  0  0  0  0
    1.7618    0.9738   -0.0526 C   0  0  0  0  0  0  0  0  0  0  0  0
    1.5430    2.1738   -0.3037 O   0  0  0  0  0  0  0  0  0  0  0  0
    0.6312    0.1689    0.2743 N   0  0  0  0  0  0  0  0  0  0  0  0
   -0.7064    0.6710    0.3237 C   0  0  2  0  0  0  0  0  0  0  0  0
   -1.3425    0.6050    1.6882 C   0  0  0  0  0  0  0  0  0  0  0  0
   -2.6654    1.0772    1.5239 O   0  0  0  0  0  0  0  0  0  0  0  0
   -3.4120    0.0003    1.0599 C   0  0  0  0  0  0  0  0  0  0  0  0
   -2.6383   -0.8685    0.0985 C   0  0  0  0  0  0  0  0  0  0  0  0
   -1.6429    0.0223   -0.6552 C   0  0  2  0  0  0  0  0  0  0  0  0
   -1.0084   -0.6489   -1.6687 O   0  0  0  0  0  0  0  0  0  0  0  0
    5.1312   -0.6417    0.7137 H   0  0  0  0  0  0  0  0  0  0  0  0
    4.8776   -1.3110   -0.8612 H   0  0  0  0  0  0  0  0  0  0  0  0
    3.8303    1.0511    0.5469 H   0  0  0  0  0  0  0  0  0  0  0  0
    3.5099    0.6086   -1.1428 H   0  0  0  0  0  0  0  0  0  0  0  0
    0.8445   -0.8425    0.4824 H   0  0  0  0  0  0  0  0  0  0  0  0
   -0.6508    1.7545    0.0656 H   0  0  0  0  0  0  0  0  0  0  0  0
   -1.4455   -0.4187    2.0737 H   0  0  0  0  0  0  0  0  0  0  0  0
   -0.7636    1.2649    2.3666 H   0  0  0  0  0  0  0  0  0  0  0  0
   -4.2995    0.4261    0.5471 H   0  0  0  0  0  0  0  0  0  0  0  0
   -3.7342   -0.5695    1.9611 H   0  0  0  0  0  0  0  0  0  0  0  0
   -3.3235   -1.3171   -0.6700 H   0  0  0  0  0  0  0  0  0  0  0  0
   -2.1528   -1.6964    0.6107 H   0  0  0  0  0  0  0  0  0  0  0  0
   -2.2971    0.7976   -1.1432 H   0  0  0  0  0  0  0  0  0  0  0  0
   -0.9728   -1.6155   -1.5830 H   0  0  0  0  0  0  0  0  0  0  0  0
  1  2  1  0
  2  3  1  0
  3  4  1  0
  4  5  2  0
  4  6  1  0
  6  7  1  0
  7  8  1  0
  8  9  1  0
  9 10  1  0
 10 11  1  0
 11 12  1  0
 12 13  1  0
 12  7  1  0
  1 14  1  0
  1 15  1  0
  3 16  1  0
  3 17  1  0
  6 18  1  0
  7 19  1  6
  8 20  1  0
  8 21  1  0
 10 22  1  0
 10 23  1  0
 11 24  1  0
 11 25  1  0
 12 26  1  6
 13 27  1  0
M  END
$$$$

     RDKit          3D

 27 27  0  0  0  0  0  0  0  0999 V2000
    5.2570   -0.4612   -0.0211 N   0  0  0  0  0  0  0  0  0  0  0  0
    4.1027    0.0238    0.4559 O   0  0  0  0  0  0  0  0  0  0  0  0
    2.9954   -0.5220   -0.1973 C   0  0  0  0  0  0  0  0  0  0  0  0
    1.7608    0.0552    0.3772 C   0  0  0  0  0  0  0  0  0  0  0  0
    1.8087    0.9019    1.3098 O   0  0  0  0  0  0  0  0  0  0  0  0
    0.4979   -0.3419   -0.1201 N   0  0  0  0  0  0  0  0  0  0  0  0
   -0.7633    0.1876    0.4007 C   0  0  2  0  0  0  0  0  0  0  0  0
   -1.5425   -0.9574    0.9329 C   0  0  0  0  0  0  0  0  0  0  0  0
   -2.8396   -0.7724    1.2023 O   0  0  0  0  0  0  0  0  0  0  0  0
   -3.5677    0.1130    0.4830 C   0  0  0  0  0  0  0  0  0  0  0  0
   -2.8436    1.3484    0.0351 C   0  0  0  0  0  0  0  0  0  0  0  0
   -1.5558    0.9014   -0.6400 C   0  0  2  0  0  0  0  0  0  0  0  0
   -1.8310    0.0114   -1.6731 O   0  0  0  0  0  0  0  0  0  0  0  0
    5.6635   -1.1666    0.6161 H   0  0  0  0  0  0  0  0  0  0  0  0
    5.9014    0.3351   -0.1909 H   0  0  0  0  0  0  0  0  0  0  0  0
    3.0401   -0.3479   -1.2916 H   0  0  0  0  0  0  0  0  0  0  0  0
    2.9706   -1.6329   -0.0308 H   0  0  0  0  0  0  0  0  0  0  0  0
    0.4675   -1.0462   -0.8953 H   0  0  0  0  0  0  0  0  0  0  0  0
   -0.5332    0.9155    1.2115 H   0  0  0  0  0  0  0  0  0  0  0  0
   -1.3827   -1.8293    0.2330 H   0  0  0  0  0  0  0  0  0  0  0  0
   -1.0309   -1.2919    1.8845 H   0  0  0  0  0  0  0  0  0  0  0  0
   -4.0236   -0.3471   -0.4307 H   0  0  0  0  0  0  0  0  0  0  0  0
   -4.4253    0.4421    1.1091 H   0  0  0  0  0  0  0  0  0  0  0  0
   -2.5675    1.9363    0.9388 H   0  0  0  0  0  0  0  0  0  0  0  0
   -3.5036    1.9085   -0.6536 H   0  0  0  0  0  0  0  0  0  0  0  0
   -1.0750    1.8171   -1.0353 H   0  0  0  0  0  0  0  0  0  0  0  0
   -0.9804   -0.1803   -2.1410 H   0  0  0  0  0  0  0  0  0  0  0  0
  1  2  1  0
  2  3  1  0
  3  4  1  0
  4  5  2  0
  4  6  1  0
  6  7  1  0
  7  8  1  0
  8  9  1  0
  9 10  1  0
 10 11  1  0
 11 12  1  0
 12 13  1  0
 12  7  1  0
  1 14  1  0
  1 15  1  0
  3 16  1  0
  3 17  1  0
  6 18  1  0
  7 19  1  1
  8 20  1  0
  8 21  1  0
 10 22  1  0
 10 23  1  0
 11 24  1  0
 11 25  1  0
 12 26  1  6
 13 27  1  0
M  END
$$$$

     RDKit          3D

 27 27  0  0  0  0  0  0  0  0999 V2000
    4.9899    0.8475    0.7256 N   0  0  0  0  0  0  0  0  0  0  0  0
    3.9054    0.0175    0.8482 O   0  0  0  0  0  0  0  0  0  0  0  0
    2.8165    0.5981    0.2261 C   0  0  0  0  0  0  0  0  0  0  0  0
    1.6453   -0.2736    0.3456 C   0  0  0  0  0  0  0  0  0  0  0  0
    1.7844   -1.3807    0.9693 O   0  0  0  0  0  0  0  0  0  0  0  0
    0.3641    0.0357   -0.1893 N   0  0  0  0  0  0  0  0  0  0  0  0
   -0.6985   -0.8926   -0.0087 C   0  0  2  0  0  0  0  0  0  0  0  0
   -1.1377   -1.3596   -1.3986 C   0  0  0  0  0  0  0  0  0  0  0  0
   -1.7084   -0.3368   -2.1307 O   0  0  0  0  0  0  0  0  0  0  0  0
   -2.8338    0.2042   -1.5426 C   0  0  0  0  0  0  0  0  0  0  0  0
   -2.4403    0.8484   -0.2057 C   0  0  0  0  0  0  0  0  0  0  0  0
   -1.9201   -0.3033    0.6475 C   0  0  2  0  0  0  0  0  0  0  0  0
   -1.7400    0.0412    1.9609 O   0  0  0  0  0  0  0  0  0  0  0  0
    4.8674    1.5629    1.4994 H   0  0  0  0  0  0  0  0  0  0  0  0
    4.8844    1.4148   -0.1644 H   0  0  0  0  0  0  0  0  0  0  0  0
    2.6296    1.6375    0.5652 H   0  0  0  0  0  0  0  0  0  0  0  0
    3.0950    0.6924   -0.8637 H   0  0  0  0  0  0  0  0  0  0  0  0
    0.2592    0.9363   -0.6943 H   0  0  0  0  0  0  0  0  0  0  0  0
   -0.3876   -1.7749    0.5467 H   0  0  0  0  0  0  0  0  0  0  0  0
   -0.1880   -1.6369   -1.9252 H   0  0  0  0  0  0  0  0  0  0  0  0
   -1.7678   -2.2371   -1.2646 H   0  0  0  0  0  0  0  0  0  0  0  0
   -3.6159   -0.5493   -1.3409 H   0  0  0  0  0  0  0  0  0  0  0  0
   -3.2637    0.9498   -2.2210 H   0  0  0  0  0  0  0  0  0  0  0  0
   -3.3469    1.2333    0.3055 H   0  0  0  0  0  0  0  0  0  0  0  0
   -1.6712    1.6084   -0.3846 H   0  0  0  0  0  0  0  0  0  0  0  0
   -2.7200   -1.0975    0.5706 H   0  0  0  0  0  0  0  0  0  0  0  0
   -1.8012   -0.7857    2.5157 H   0  0  0  0  0  0  0  0  0  0  0  0
  1  2  1  0
  2  3  1  0
  3  4  1  0
  4  5  2  0
  4  6  1  0
  6  7  1  0
  7  8  1  0
  8  9  1  0
  9 10  1  0
 10 11  1  0
 11 12  1  0
 12 13  1  0
 12  7  1  0
  1 14  1  0
  1 15  1  0
  3 16  1  0
  3 17  1  0
  6 18  1  0
  7 19  1  1
  8 20  1  0
  8 21  1  0
 10 22  1  0
 10 23  1  0
 11 24  1  0
 11 25  1  0
 12 26  1  1
 13 27  1  0
M  END
$$$$
