
     RDKit          3D

 24 24  0  0  0  0  0  0  0  0999 V2000
   -0.3590    1.5993    0.3717 C   0  0  0  0  0  0  0  0  0  0  0  0
   -0.3368    0.2334   -0.2763 C   0  0  1  0  0  0  0  0  0  0  0  0
    0.9669   -0.3846    0.0688 C   0  0  0  0  0  0  0  0  0  0  0  0
    0.9437   -1.4617    0.7106 O   0  0  0  0  0  0  0  0  0  0  0  0
    2.2185    0.1726   -0.2848 N   0  0  0  0  0  0  0  0  0  0  0  0
    3.4324   -0.4760    0.0801 C   0  0  0  0  0  0  0  0  0  0  0  0
    4.6794    0.1165   -0.2945 N   0  0  0  0  0  0  0  0  0  0  0  0
    3.4328   -1.5615    0.7263 O   0  0  0  0  0  0  0  0  0  0  0  0
   -1.4360   -0.5992    0.1127 N   0  0  0  0  0  0  0  0  0  0  0  0
   -1.3789   -1.6257    0.9497 N   0  0  0  0  0  0  0  0  0  0  0  0
   -2.5633   -2.1844    1.0974 N   0  0  0  0  0  0  0  0  0  0  0  0
   -3.4358   -1.5165    0.3412 C   0  0  0  0  0  0  0  0  0  0  0  0
   -2.7166   -0.5089   -0.2840 C   0  0  0  0  0  0  0  0  0  0  0  0
   -3.2480    0.4541   -1.1902 N   0  0  0  0  0  0  0  0  0  0  0  0
   -1.3127    1.8086    0.8864 H   0  0  0  0  0  0  0  0  0  0  0  0
    0.4399    1.7127    1.1474 H   0  0  0  0  0  0  0  0  0  0  0  0
   -0.1321    2.3428   -0.4131 H   0  0  0  0  0  0  0  0  0  0  0  0
   -0.3408    0.3265   -1.3998 H   0  0  0  0  0  0  0  0  0  0  0  0
    2.2572    1.0715   -0.8207 H   0  0  0  0  0  0  0  0  0  0  0  0
    5.4623   -0.5297   -0.5364 H   0  0  0  0  0  0  0  0  0  0  0  0
    4.8347    1.1362   -0.3349 H   0  0  0  0  0  0  0  0  0  0  0  0
   -4.4915   -1.7120    0.2305 H   0  0  0  0  0  0  0  0  0  0  0  0
   -3.2181    1.4713   -1.0364 H   0  0  0  0  0  0  0  0  0  0  0  0
   -3.6981    0.1147   -2.0687 H   0  0  0  0  0  0  0  0  0  0  0  0
  1  2  1  0
  2  3  1  0
  3  4  2  0
  3  5  1  0
  5  6  1  0
  6  7  1  0
  6  8  2  0
  2  9  1  0
  9 10  1  0
 10 11  2  0
 11 12  1  0
 12 13  2  0
 13 14  1  0
 13  9  1  0
  1 15  1  0
  1 16  1  0
  1 17  1  0
  2 18  1  6
  5 19  1  0
  7 20  1  0
  7 21  1  0
 12 22  1  0
 14 23  1  0
 14 24  1  0
M  END
$$$$

     RDKit          3D

 24 24  0  0  0  0  0  0  0  0999 V2000
   -0.2127    1.3281   -0.4180 C   0  0  0  0  0  0  0  0  0  0  0  0
   -0.2339   -0.1944   -0.6070 C   0  0  1  0  0  0  0  0  0  0  0  0
    0.8603   -0.7214    0.2573 C   0  0  0  0  0  0  0  0  0  0  0  0
    0.6937   -1.5189    1.1871 O   0  0  0  0  0  0  0  0  0  0  0  0
    2.1779   -0.2611   -0.0260 N   0  0  0  0  0  0  0  0  0  0  0  0
    3.3085   -0.7027    0.7426 C   0  0  0  0  0  0  0  0  0  0  0  0
    4.6231   -0.2127    0.4229 N   0  0  0  0  0  0  0  0  0  0  0  0
    3.1082   -1.5148    1.6830 O   0  0  0  0  0  0  0  0  0  0  0  0
   -1.5201   -0.6854   -0.2370 N   0  0  0  0  0  0  0  0  0  0  0  0
   -1.7857   -1.8771    0.2378 N   0  0  0  0  0  0  0  0  0  0  0  0
   -3.0765   -2.0223    0.4822 N   0  0  0  0  0  0  0  0  0  0  0  0
   -3.6694   -0.8650    0.1471 C   0  0  0  0  0  0  0  0  0  0  0  0
   -2.6824   -0.0133   -0.3104 C   0  0  0  0  0  0  0  0  0  0  0  0
   -2.9360    1.3068   -0.7553 N   0  0  0  0  0  0  0  0  0  0  0  0
   -0.8526    1.6082    0.4338 H   0  0  0  0  0  0  0  0  0  0  0  0
   -0.4773    1.8451   -1.3572 H   0  0  0  0  0  0  0  0  0  0  0  0
    0.8213    1.6573   -0.1630 H   0  0  0  0  0  0  0  0  0  0  0  0
    0.0172   -0.4710   -1.6468 H   0  0  0  0  0  0  0  0  0  0  0  0
    2.3893    0.4124   -0.7966 H   0  0  0  0  0  0  0  0  0  0  0  0
    4.7857    0.8122    0.2033 H   0  0  0  0  0  0  0  0  0  0  0  0
    5.4533   -0.8267    0.3934 H   0  0  0  0  0  0  0  0  0  0  0  0
   -4.7282   -0.6760    0.2349 H   0  0  0  0  0  0  0  0  0  0  0  0
   -3.1851    2.0400   -0.0347 H   0  0  0  0  0  0  0  0  0  0  0  0
   -2.8786    1.5527   -1.7724 H   0  0  0  0  0  0  0  0  0  0  0  0
  1  2  1  0
  2  3  1  0
  3  4  2  0
  3  5  1  0
  5  6  1  0
  6  7  1  0
  6  8  2  0
  2  9  1  0
  9 10  1  0
 10 11  2  0
 11 12  1  0
 12 13  2  0
 13 14  1  0
 13  9  1  0
  1 15  1  0
  1 16  1  0
  1 17  1  0
  2 18  1  6
  5 19  1  0
  7 20  1  0
  7 21  1  0
 12 22  1  0
 14 23  1  0
 14 24  1  0
M  END
$$$$

     RDKit          3D

 24 24  0  0  0  0  0  0  0  0999 V2000
   -1.2206   -2.3024    0.0347 C   0  0  0  0  0  0  0  0  0  0  0  0
   -0.3401   -1.2276    0.6071 C   0  0  1  0  0  0  0  0  0  0  0  0
    0.7729   -0.8757   -0.3351 C   0  0  0  0  0  0  0  0  0  0  0  0
    0.9090   -1.4382   -1.4525 O   0  0  0  0  0  0  0  0  0  0  0  0
    1.7257    0.1182    0.0051 N   0  0  0  0  0  0  0  0  0  0  0  0
    2.7977    0.4983   -0.8343 C   0  0  0  0  0  0  0  0  0  0  0  0
    3.6993    1.5070   -0.3998 N   0  0  0  0  0  0  0  0  0  0  0  0
    2.9090   -0.0757   -1.9367 O   0  0  0  0  0  0  0  0  0  0  0  0
   -1.0655   -0.0647    1.0333 N   0  0  0  0  0  0  0  0  0  0  0  0
   -1.2344    0.4273    2.2490 N   0  0  0  0  0  0  0  0  0  0  0  0
   -1.9746    1.5228    2.2236 N   0  0  0  0  0  0  0  0  0  0  0  0
   -2.3213    1.7865    0.9521 C   0  0  0  0  0  0  0  0  0  0  0  0
   -1.7300    0.7597    0.2073 C   0  0  0  0  0  0  0  0  0  0  0  0
   -1.8449    0.6547   -1.1855 N   0  0  0  0  0  0  0  0  0  0  0  0
   -1.5200   -3.0321    0.8189 H   0  0  0  0  0  0  0  0  0  0  0  0
   -0.5943   -2.8906   -0.6881 H   0  0  0  0  0  0  0  0  0  0  0  0
   -2.1375   -1.9086   -0.4356 H   0  0  0  0  0  0  0  0  0  0  0  0
    0.1534   -1.6713    1.5059 H   0  0  0  0  0  0  0  0  0  0  0  0
    1.6322    0.5976    0.9264 H   0  0  0  0  0  0  0  0  0  0  0  0
    4.3689    1.9671   -1.0509 H   0  0  0  0  0  0  0  0  0  0  0  0
    3.7109    1.8124    0.5914 H   0  0  0  0  0  0  0  0  0  0  0  0
   -2.9216    2.6037    0.5717 H   0  0  0  0  0  0  0  0  0  0  0  0
   -1.1265    1.0685   -1.7999 H   0  0  0  0  0  0  0  0  0  0  0  0
   -2.6479    0.1634   -1.6080 H   0  0  0  0  0  0  0  0  0  0  0  0
  1  2  1  0
  2  3  1  0
  3  4  2  0
  3  5  1  0
  5  6  1  0
  6  7  1  0
  6  8  2  0
  2  9  1  0
  9 10  1  0
 10 11  2  0
 11 12  1  0
 12 13  2  0
 13 14  1  0
 13  9  1  0
  1 15  1  0
  1 16  1  0
  1 17  1  0
  2 18  1  1
  5 19  1  0
  7 20  1  0
  7 21  1  0
 12 22  1  0
 14 23  1  0
 14 24  1  0
M  END
$$$$

     RDKit          3D

 24 24  0  0  0  0  0  0  0  0999 V2000
   -0.3365   -2.3812    0.0162 C   0  0  0  0  0  0  0  0  0  0  0  0
   -0.7203   -0.9842    0.5288 C   0  0  1  0  0  0  0  0  0  0  0  0
    0.5497   -0.3196    0.8796 C   0  0  0  0  0  0  0  0  0  0  0  0
    0.7244    0.0578    2.0576 O   0  0  0  0  0  0  0  0  0  0  0  0
    1.5396   -0.1209   -0.1080 N   0  0  0  0  0  0  0  0  0  0  0  0
    2.7697    0.5257    0.2444 C   0  0  0  0  0  0  0  0  0  0  0  0
    3.7697    0.7277   -0.7477 N   0  0  0  0  0  0  0  0  0  0  0  0
    2.9495    0.9123    1.4492 O   0  0  0  0  0  0  0  0  0  0  0  0
   -1.3920   -0.2838   -0.5719 N   0  0  0  0  0  0  0  0  0  0  0  0
   -1.5426   -0.6746   -1.8034 N   0  0  0  0  0  0  0  0  0  0  0  0
   -2.2156    0.2478   -2.5092 N   0  0  0  0  0  0  0  0  0  0  0  0
   -2.5022    1.2741   -1.6711 C   0  0  0  0  0  0  0  0  0  0  0  0
   -1.9727    0.9219   -0.4445 C   0  0  0  0  0  0  0  0  0  0  0  0
   -2.0418    1.7102    0.7294 N   0  0  0  0  0  0  0  0  0  0  0  0
   -1.2625   -2.8973   -0.2558 H   0  0  0  0  0  0  0  0  0  0  0  0
    0.2533   -2.8711    0.8043 H   0  0  0  0  0  0  0  0  0  0  0  0
    0.2594   -2.1924   -0.9094 H   0  0  0  0  0  0  0  0  0  0  0  0
   -1.3637   -1.0729    1.4048 H   0  0  0  0  0  0  0  0  0  0  0  0
    1.4448   -0.4167   -1.1071 H   0  0  0  0  0  0  0  0  0  0  0  0
    4.3462    1.5848   -0.7374 H   0  0  0  0  0  0  0  0  0  0  0  0
    3.9334    0.0310   -1.4840 H   0  0  0  0  0  0  0  0  0  0  0  0
   -3.0398    2.1911   -1.9108 H   0  0  0  0  0  0  0  0  0  0  0  0
   -2.6426    1.4206    1.5381 H   0  0  0  0  0  0  0  0  0  0  0  0
   -1.5074    2.6099    0.8549 H   0  0  0  0  0  0  0  0  0  0  0  0
  1  2  1  0
  2  3  1  0
  3  4  2  0
  3  5  1  0
  5  6  1  0
  6  7  1  0
  6  8  2  0
  2  9  1  0
  9 10  1  0
 10 11  2  0
 11 12  1  0
 12 13  2  0
 13 14  1  0
 13  9  1  0
  1 15  1  0
  1 16  1  0
  1 17  1  0
  2 18  1  1
  5 19  1  0
  7 20  1  0
  7 21  1  0
 12 22  1  0
 14 23  1  0
 14 24  1  0
M  END
$$$$

     RDKit          3D

 24 24  0  0  0  0  0  0  0  0999 V2000
    0.5401    0.8254   -1.5329 C   0  0  0  0  0  0  0  0  0  0  0  0
    0.3742    0.3159   -0.1213 C   0  0  1  0  0  0  0  0  0  0  0  0
   -0.9697   -0.1817    0.1609 C   0  0  0  0  0  0  0  0  0  0  0  0
   -1.1203   -1.3800    0.5054 O   0  0  0  0  0  0  0  0  0  0  0  0
   -2.1455    0.6105    0.0715 N   0  0  0  0  0  0  0  0  0  0  0  0
   -3.4023    0.0353    0.3654 C   0  0  0  0  0  0  0  0  0  0  0  0
   -4.5848    0.8456    0.2718 N   0  0  0  0  0  0  0  0  0  0  0  0
   -3.4976   -1.1646    0.7044 O   0  0  0  0  0  0  0  0  0  0  0  0
    1.3274   -0.7370    0.1517 N   0  0  0  0  0  0  0  0  0  0  0  0
    1.0593   -2.0161   -0.0522 N   0  0  0  0  0  0  0  0  0  0  0  0
    2.0804   -2.7712    0.2702 N   0  0  0  0  0  0  0  0  0  0  0  0
    3.0552   -1.9557    0.7021 C   0  0  0  0  0  0  0  0  0  0  0  0
    2.5684   -0.6563    0.6242 C   0  0  0  0  0  0  0  0  0  0  0  0
    3.2251    0.5483    0.9680 N   0  0  0  0  0  0  0  0  0  0  0  0
   -0.3503    0.7001   -2.1564 H   0  0  0  0  0  0  0  0  0  0  0  0
    1.3835    0.2929   -2.0156 H   0  0  0  0  0  0  0  0  0  0  0  0
    0.8502    1.9107   -1.4978 H   0  0  0  0  0  0  0  0  0  0  0  0
    0.5886    1.1286    0.6182 H   0  0  0  0  0  0  0  0  0  0  0  0
   -2.0355    1.6003   -0.2115 H   0  0  0  0  0  0  0  0  0  0  0  0
   -4.9043    1.3716    1.1164 H   0  0  0  0  0  0  0  0  0  0  0  0
   -5.1141    0.9013   -0.6402 H   0  0  0  0  0  0  0  0  0  0  0  0
    4.0542   -2.1941    1.0580 H   0  0  0  0  0  0  0  0  0  0  0  0
    2.8644    1.2507    1.6430 H   0  0  0  0  0  0  0  0  0  0  0  0
    4.1535    0.7195    0.4839 H   0  0  0  0  0  0  0  0  0  0  0  0
  1  2  1  0
  2  3  1  0
  3  4  2  0
  3  5  1  0
  5  6  1  0
  6  7  1  0
  6  8  2  0
  2  9  1  0
  9 10  1  0
 10 11  2  0
 11 12  1  0
 12 13  2  0
 13 14  1  0
 13  9  1  0
  1 15  1  0
  1 16  1  0
  1 17  1  0
  2 18  1  1
  5 19  1  0
  7 20  1  0
  7 21  1  0
 12 22  1  0
 14 23  1  0
 14 24  1  0
M  END
$$$$

     RDKit          3D

 24 24  0  0  0  0  0  0  0  0999 V2000
   -0.4520   -2.1550   -0.4414 C   0  0  0  0  0  0  0  0  0  0  0  0
   -0.5337   -0.7874    0.1913 C   0  0  1  0  0  0  0  0  0  0  0  0
    0.6560    0.0465   -0.1252 C   0  0  0  0  0  0  0  0  0  0  0  0
    0.5160    1.1388   -0.7357 O   0  0  0  0  0  0  0  0  0  0  0  0
    1.9722   -0.3269    0.2298 N   0  0  0  0  0  0  0  0  0  0  0  0
    3.0799    0.4998   -0.0923 C   0  0  0  0  0  0  0  0  0  0  0  0
    4.3931    0.1095    0.2714 N   0  0  0  0  0  0  0  0  0  0  0  0
    2.8625    1.5764   -0.7032 O   0  0  0  0  0  0  0  0  0  0  0  0
   -1.7302   -0.0990   -0.2487 N   0  0  0  0  0  0  0  0  0  0  0  0
   -2.4411   -0.4543   -1.3047 N   0  0  0  0  0  0  0  0  0  0  0  0
   -3.4573    0.3816   -1.4172 N   0  0  0  0  0  0  0  0  0  0  0  0
   -3.3993    1.2950   -0.4115 C   0  0  0  0  0  0  0  0  0  0  0  0
   -2.2882    0.9798    0.3339 C   0  0  0  0  0  0  0  0  0  0  0  0
   -1.8235    1.6616    1.4915 N   0  0  0  0  0  0  0  0  0  0  0  0
   -0.1001   -2.9298    0.2697 H   0  0  0  0  0  0  0  0  0  0  0  0
    0.3121   -2.1260   -1.2660 H   0  0  0  0  0  0  0  0  0  0  0  0
   -1.4233   -2.4989   -0.8560 H   0  0  0  0  0  0  0  0  0  0  0  0
   -0.5773   -0.9522    1.2937 H   0  0  0  0  0  0  0  0  0  0  0  0
    2.0870   -1.2445    0.7423 H   0  0  0  0  0  0  0  0  0  0  0  0
    4.5666   -0.8399    0.6564 H   0  0  0  0  0  0  0  0  0  0  0  0
    5.1924    0.7540    0.1619 H   0  0  0  0  0  0  0  0  0  0  0  0
   -4.1029    2.1082   -0.2457 H   0  0  0  0  0  0  0  0  0  0  0  0
   -2.1647    2.6235    1.7045 H   0  0  0  0  0  0  0  0  0  0  0  0
   -1.1444    1.2391    2.1520 H   0  0  0  0  0  0  0  0  0  0  0  0
  1  2  1  0
  2  3  1  0
  3  4  2  0
  3  5  1  0
  5  6  1  0
  6  7  1  0
  6  8  2  0
  2  9  1  0
  9 10  1  0
 10 11  2  0
 11 12  1  0
 12 13  2  0
 13 14  1  0
 13  9  1  0
  1 15  1  0
  1 16  1  0
  1 17  1  0
  2 18  1  1
  5 19  1  0
  7 20  1  0
  7 21  1  0
 12 22  1  0
 14 23  1  0
 14 24  1  0
M  END
$$$$

     RDKit          3D

 24 24  0  0  0  0  0  0  0  0999 V2000
   -0.5129   -2.2893   -1.4011 C   0  0  0  0  0  0  0  0  0  0  0  0
   -0.2576   -1.1977   -0.4158 C   0  0  1  0  0  0  0  0  0  0  0  0
    1.0777   -0.6022   -0.6121 C   0  0  0  0  0  0  0  0  0  0  0  0
    1.8133   -1.0502   -1.5327 O   0  0  0  0  0  0  0  0  0  0  0  0
    1.5789    0.4544    0.1861 N   0  0  0  0  0  0  0  0  0  0  0  0
    2.8674    1.0214   -0.0113 C   0  0  0  0  0  0  0  0  0  0  0  0
    3.3153    2.0820    0.8240 N   0  0  0  0  0  0  0  0  0  0  0  0
    3.5821    0.5694   -0.9231 O   0  0  0  0  0  0  0  0  0  0  0  0
   -1.3009   -0.1710   -0.4556 N   0  0  0  0  0  0  0  0  0  0  0  0
   -1.7517    0.4312   -1.5482 N   0  0  0  0  0  0  0  0  0  0  0  0
   -2.6838    1.2920   -1.2015 N   0  0  0  0  0  0  0  0  0  0  0  0
   -2.8552    1.2650    0.1183 C   0  0  0  0  0  0  0  0  0  0  0  0
   -1.9685    0.3262    0.6018 C   0  0  0  0  0  0  0  0  0  0  0  0
   -1.7993   -0.0402    1.9626 N   0  0  0  0  0  0  0  0  0  0  0  0
   -0.0169   -3.2306   -1.0866 H   0  0  0  0  0  0  0  0  0  0  0  0
   -0.1055   -1.9800   -2.3778 H   0  0  0  0  0  0  0  0  0  0  0  0
   -1.5944   -2.5068   -1.5019 H   0  0  0  0  0  0  0  0  0  0  0  0
   -0.2629   -1.6505    0.6054 H   0  0  0  0  0  0  0  0  0  0  0  0
    0.9558    0.8252    0.9567 H   0  0  0  0  0  0  0  0  0  0  0  0
    3.8216    1.8696    1.7021 H   0  0  0  0  0  0  0  0  0  0  0  0
    3.1243    3.0511    0.5339 H   0  0  0  0  0  0  0  0  0  0  0  0
   -3.5623    1.8741    0.6793 H   0  0  0  0  0  0  0  0  0  0  0  0
   -0.8359   -0.1990    2.3365 H   0  0  0  0  0  0  0  0  0  0  0  0
   -2.6285   -0.1441    2.5611 H   0  0  0  0  0  0  0  0  0  0  0  0
  1  2  1  0
  2  3  1  0
  3  4  2  0
  3  5  1  0
  5  6  1  0
  6  7  1  0
  6  8  2  0
  2  9  1  0
  9 10  1  0
 10 11  2  0
 11 12  1  0
 12 13  2  0
 13 14  1  0
 13  9  1  0
  1 15  1  0
  1 16  1  0
  1 17  1  0
  2 18  1  1
  5 19  1  0
  7 20  1  0
  7 21  1  0
 12 22  1  0
 14 23  1  0
 14 24  1  0
M  END
$$$$

     RDKit          3D

 24 24  0  0  0  0  0  0  0  0999 V2000
   -0.0287   -2.1246   -0.4071 C   0  0  0  0  0  0  0  0  0  0  0  0
   -0.4101   -0.7458    0.0470 C   0  0  1  0  0  0  0  0  0  0  0  0
    0.6910    0.2044   -0.3173 C   0  0  0  0  0  0  0  0  0  0  0  0
    0.4653    1.1758   -1.0843 O   0  0  0  0  0  0  0  0  0  0  0  0
    1.9942   -0.0023    0.2122 N   0  0  0  0  0  0  0  0  0  0  0  0
    3.0903    0.8529   -0.0851 C   0  0  0  0  0  0  0  0  0  0  0  0
    4.3820    0.6516    0.4372 N   0  0  0  0  0  0  0  0  0  0  0  0
    2.8927    1.8420   -0.8565 O   0  0  0  0  0  0  0  0  0  0  0  0
   -1.6809   -0.3007   -0.4436 N   0  0  0  0  0  0  0  0  0  0  0  0
   -2.2595   -0.6936   -1.5600 N   0  0  0  0  0  0  0  0  0  0  0  0
   -3.4203   -0.0821   -1.7009 N   0  0  0  0  0  0  0  0  0  0  0  0
   -3.6194    0.7329   -0.6604 C   0  0  0  0  0  0  0  0  0  0  0  0
   -2.5003    0.5842    0.1363 C   0  0  0  0  0  0  0  0  0  0  0  0
   -2.2730    1.2746    1.3787 N   0  0  0  0  0  0  0  0  0  0  0  0
    0.6673   -2.6195    0.2925 H   0  0  0  0  0  0  0  0  0  0  0  0
   -0.9403   -2.7723   -0.4531 H   0  0  0  0  0  0  0  0  0  0  0  0
    0.4143   -2.0236   -1.4247 H   0  0  0  0  0  0  0  0  0  0  0  0
   -0.4734   -0.7617    1.1665 H   0  0  0  0  0  0  0  0  0  0  0  0
    2.1642   -0.8125    0.8464 H   0  0  0  0  0  0  0  0  0  0  0  0
    5.0475    0.0459   -0.0597 H   0  0  0  0  0  0  0  0  0  0  0  0
    4.6542    1.1121    1.3145 H   0  0  0  0  0  0  0  0  0  0  0  0
   -4.4665    1.3905   -0.4465 H   0  0  0  0  0  0  0  0  0  0  0  0
   -1.6193    0.9153    2.1021 H   0  0  0  0  0  0  0  0  0  0  0  0
   -2.7712    2.1563    1.5657 H   0  0  0  0  0  0  0  0  0  0  0  0
  1  2  1  0
  2  3  1  0
  3  4  2  0
  3  5  1  0
  5  6  1  0
  6  7  1  0
  6  8  2  0
  2  9  1  0
  9 10  1  0
 10 11  2  0
 11 12  1  0
 12 13  2  0
 13 14  1  0
 13  9  1  0
  1 15  1  0
  1 16  1  0
  1 17  1  0
  2 18  1  1
  5 19  1  0
  7 20  1  0
  7 21  1  0
 12 22  1  0
 14 23  1  0
 14 24  1  0
M  END
$$$$
