
     RDKit          3D

 31 31  0  0  0  0  0  0  0  0999 V2000
    4.4900   -0.9267    0.3619 C   0  0  0  0  0  0  0  0  0  0  0  0
    4.0026    0.5224    0.2829 C   0  0  0  0  0  0  0  0  0  0  0  0
    2.5734    0.5199    0.5682 N   0  0  0  0  0  0  0  0  0  0  0  0
    1.6298    0.3908   -0.3660 C   0  0  0  0  0  0  0  0  0  0  0  0
    0.4111    0.4313    0.2708 C   0  0  0  0  0  0  0  0  0  0  0  0
   -0.9157    0.3248   -0.4080 C   0  0  2  0  0  0  0  0  0  0  0  0
   -1.5537    1.6866   -0.5579 C   0  0  0  0  0  0  0  0  0  0  0  0
   -0.7163    2.5756   -1.3487 N   0  0  0  0  0  0  0  0  0  0  0  0
   -1.7274   -0.5958    0.3533 N   0  0  0  0  0  0  0  0  0  0  0  0
   -2.9653   -0.8210   -0.3299 C   0  0  0  0  0  0  0  0  0  0  0  0
   -3.8228   -1.8324    0.4448 C   0  0  0  0  0  0  0  0  0  0  0  0
   -3.1869   -3.0504    0.5789 O   0  0  0  0  0  0  0  0  0  0  0  0
    0.6814    0.5847    1.5777 N   0  0  0  0  0  0  0  0  0  0  0  0
    1.9939    0.6364    1.7370 N   0  0  0  0  0  0  0  0  0  0  0  0
    5.5391   -0.9829   -0.0045 H   0  0  0  0  0  0  0  0  0  0  0  0
    4.4893   -1.2299    1.4286 H   0  0  0  0  0  0  0  0  0  0  0  0
    3.8338   -1.6176   -0.1769 H   0  0  0  0  0  0  0  0  0  0  0  0
    4.5882    1.1124    0.9932 H   0  0  0  0  0  0  0  0  0  0  0  0
    4.1908    0.8468   -0.7688 H   0  0  0  0  0  0  0  0  0  0  0  0
    1.7639    0.2721   -1.4487 H   0  0  0  0  0  0  0  0  0  0  0  0
   -0.7699   -0.0905   -1.4105 H   0  0  0  0  0  0  0  0  0  0  0  0
   -1.6896    2.1575    0.4248 H   0  0  0  0  0  0  0  0  0  0  0  0
   -2.5301    1.6419   -1.0773 H   0  0  0  0  0  0  0  0  0  0  0  0
   -0.0454    3.0345   -0.6911 H   0  0  0  0  0  0  0  0  0  0  0  0
   -1.3370    3.3383   -1.6985 H   0  0  0  0  0  0  0  0  0  0  0  0
   -1.2016   -1.4964    0.4016 H   0  0  0  0  0  0  0  0  0  0  0  0
   -3.5980    0.1146   -0.3141 H   0  0  0  0  0  0  0  0  0  0  0  0
   -2.8556   -1.2001   -1.3664 H   0  0  0  0  0  0  0  0  0  0  0  0
   -4.0685   -1.3906    1.4309 H   0  0  0  0  0  0  0  0  0  0  0  0
   -4.7370   -1.9789   -0.1333 H   0  0  0  0  0  0  0  0  0  0  0  0
   -2.4666   -2.9773    1.2461 H   0  0  0  0  0  0  0  0  0  0  0  0
  1  2  1  0
  2  3  1  0
  3  4  1  0
  4  5  2  0
  5  6  1  0
  6  7  1  0
  7  8  1  0
  6  9  1  0
  9 10  1  0
 10 11  1  0
 11 12  1  0
  5 13  1  0
 13 14  2  0
 14  3  1  0
  1 15  1  0
  1 16  1  0
  1 17  1  0
  2 18  1  0
  2 19  1  0
  4 20  1  0
  6 21  1  6
  7 22  1  0
  7 23  1  0
  8 24  1  0
  8 25  1  0
  9 26  1  0
 10 27  1  0
 10 28  1  0
 11 29  1  0
 11 30  1  0
 12 31  1  0
M  END
$$$$

     RDKit          3D

 31 31  0  0  0  0  0  0  0  0999 V2000
    4.6666   -0.3728   -0.1446 C   0  0  0  0  0  0  0  0  0  0  0  0
    3.5984   -1.3082    0.3724 C   0  0  0  0  0  0  0  0  0  0  0  0
    2.3801   -0.5422    0.4932 N   0  0  0  0  0  0  0  0  0  0  0  0
    1.4447   -0.4159   -0.4483 C   0  0  0  0  0  0  0  0  0  0  0  0
    0.4261    0.3571    0.0399 C   0  0  0  0  0  0  0  0  0  0  0  0
   -0.8434    0.6997   -0.6003 C   0  0  2  0  0  0  0  0  0  0  0  0
   -1.0469    2.0435   -1.1545 C   0  0  0  0  0  0  0  0  0  0  0  0
   -0.9435    3.0927   -0.1823 N   0  0  0  0  0  0  0  0  0  0  0  0
   -1.8963    0.3846    0.4060 N   0  0  0  0  0  0  0  0  0  0  0  0
   -2.6133   -0.7790   -0.1215 C   0  0  0  0  0  0  0  0  0  0  0  0
   -3.4870   -1.3954    0.9509 C   0  0  0  0  0  0  0  0  0  0  0  0
   -4.1184   -2.4992    0.3780 O   0  0  0  0  0  0  0  0  0  0  0  0
    0.7940    0.6826    1.3005 N   0  0  0  0  0  0  0  0  0  0  0  0
    1.9889    0.1184    1.5468 N   0  0  0  0  0  0  0  0  0  0  0  0
    4.2828    0.0454   -1.1048 H   0  0  0  0  0  0  0  0  0  0  0  0
    4.7435    0.4522    0.6203 H   0  0  0  0  0  0  0  0  0  0  0  0
    5.6543   -0.8478   -0.2820 H   0  0  0  0  0  0  0  0  0  0  0  0
    3.4464   -2.1669   -0.3341 H   0  0  0  0  0  0  0  0  0  0  0  0
    3.8969   -1.7169    1.3506 H   0  0  0  0  0  0  0  0  0  0  0  0
    1.5229   -0.8632   -1.4262 H   0  0  0  0  0  0  0  0  0  0  0  0
   -1.0326   -0.0168   -1.4843 H   0  0  0  0  0  0  0  0  0  0  0  0
   -0.2219    2.2401   -1.9027 H   0  0  0  0  0  0  0  0  0  0  0  0
   -1.9999    2.0512   -1.7472 H   0  0  0  0  0  0  0  0  0  0  0  0
   -0.8508    2.7912    0.7953 H   0  0  0  0  0  0  0  0  0  0  0  0
   -0.4089    3.9193   -0.4755 H   0  0  0  0  0  0  0  0  0  0  0  0
   -2.5163    1.2047    0.4932 H   0  0  0  0  0  0  0  0  0  0  0  0
   -3.2170   -0.4475   -0.9767 H   0  0  0  0  0  0  0  0  0  0  0  0
   -1.8208   -1.4691   -0.4953 H   0  0  0  0  0  0  0  0  0  0  0  0
   -2.8235   -1.7217    1.8096 H   0  0  0  0  0  0  0  0  0  0  0  0
   -4.1851   -0.6504    1.3613 H   0  0  0  0  0  0  0  0  0  0  0  0
   -4.8201   -2.8698    0.9624 H   0  0  0  0  0  0  0  0  0  0  0  0
  1  2  1  0
  2  3  1  0
  3  4  1  0
  4  5  2  0
  5  6  1  0
  6  7  1  0
  7  8  1  0
  6  9  1  0
  9 10  1  0
 10 11  1  0
 11 12  1  0
  5 13  1  0
 13 14  2  0
 14  3  1  0
  1 15  1  0
  1 16  1  0
  1 17  1  0
  2 18  1  0
  2 19  1  0
  4 20  1  0
  6 21  1  6
  7 22  1  0
  7 23  1  0
  8 24  1  0
  8 25  1  0
  9 26  1  0
 10 27  1  0
 10 28  1  0
 11 29  1  0
 11 30  1  0
 12 31  1  0
M  END
$$$$

     RDKit          3D

 31 31  0  0  0  0  0  0  0  0999 V2000
    4.4862    1.3839    0.0078 C   0  0  0  0  0  0  0  0  0  0  0  0
    4.0372   -0.0002    0.3863 C   0  0  0  0  0  0  0  0  0  0  0  0
    2.6196   -0.0986    0.5838 N   0  0  0  0  0  0  0  0  0  0  0  0
    1.6204   -0.3945   -0.2930 C   0  0  0  0  0  0  0  0  0  0  0  0
    0.4221   -0.3665    0.3810 C   0  0  0  0  0  0  0  0  0  0  0  0
   -0.9628   -0.6179   -0.1100 C   0  0  2  0  0  0  0  0  0  0  0  0
   -1.0158   -0.8518   -1.5763 C   0  0  0  0  0  0  0  0  0  0  0  0
   -0.2094   -2.0066   -1.9560 N   0  0  0  0  0  0  0  0  0  0  0  0
   -1.8779    0.3840    0.3504 N   0  0  0  0  0  0  0  0  0  0  0  0
   -3.2311   -0.0365    0.1158 C   0  0  0  0  0  0  0  0  0  0  0  0
   -4.2359    0.9627    0.6762 C   0  0  0  0  0  0  0  0  0  0  0  0
   -4.1051    1.1352    2.0317 O   0  0  0  0  0  0  0  0  0  0  0  0
    0.7436   -0.0519    1.6484 N   0  0  0  0  0  0  0  0  0  0  0  0
    2.0474    0.1045    1.7576 N   0  0  0  0  0  0  0  0  0  0  0  0
    3.9581    1.7713   -0.8796 H   0  0  0  0  0  0  0  0  0  0  0  0
    4.4175    2.0418    0.8905 H   0  0  0  0  0  0  0  0  0  0  0  0
    5.5641    1.3098   -0.2596 H   0  0  0  0  0  0  0  0  0  0  0  0
    4.5506   -0.2947    1.3175 H   0  0  0  0  0  0  0  0  0  0  0  0
    4.3566   -0.7122   -0.4036 H   0  0  0  0  0  0  0  0  0  0  0  0
    1.7706   -0.6069   -1.3255 H   0  0  0  0  0  0  0  0  0  0  0  0
   -1.3149   -1.5803    0.3692 H   0  0  0  0  0  0  0  0  0  0  0  0
   -2.0405   -1.0963   -1.9053 H   0  0  0  0  0  0  0  0  0  0  0  0
   -0.6931    0.0224   -2.1699 H   0  0  0  0  0  0  0  0  0  0  0  0
    0.2298   -2.4187   -1.1282 H   0  0  0  0  0  0  0  0  0  0  0  0
    0.3667   -1.8638   -2.7873 H   0  0  0  0  0  0  0  0  0  0  0  0
   -1.6906    0.5844    1.3578 H   0  0  0  0  0  0  0  0  0  0  0  0
   -3.3999   -0.1007   -0.9841 H   0  0  0  0  0  0  0  0  0  0  0  0
   -3.4288   -1.0437    0.5285 H   0  0  0  0  0  0  0  0  0  0  0  0
   -5.2543    0.5722    0.4699 H   0  0  0  0  0  0  0  0  0  0  0  0
   -4.1475    1.9337    0.1628 H   0  0  0  0  0  0  0  0  0  0  0  0
   -3.5831    1.9361    2.2809 H   0  0  0  0  0  0  0  0  0  0  0  0
  1  2  1  0
  2  3  1  0
  3  4  1  0
  4  5  2  0
  5  6  1  0
  6  7  1  0
  7  8  1  0
  6  9  1  0
  9 10  1  0
 10 11  1  0
 11 12  1  0
  5 13  1  0
 13 14  2  0
 14  3  1  0
  1 15  1  0
  1 16  1  0
  1 17  1  0
  2 18  1  0
  2 19  1  0
  4 20  1  0
  6 21  1  1
  7 22  1  0
  7 23  1  0
  8 24  1  0
  8 25  1  0
  9 26  1  0
 10 27  1  0
 10 28  1  0
 11 29  1  0
 11 30  1  0
 12 31  1  0
M  END
$$$$

     RDKit          3D

 31 31  0  0  0  0  0  0  0  0999 V2000
   -3.8244    0.1595    1.8498 C   0  0  0  0  0  0  0  0  0  0  0  0
   -3.7599   -0.0128    0.3520 C   0  0  0  0  0  0  0  0  0  0  0  0
   -2.3504   -0.1695   -0.0114 N   0  0  0  0  0  0  0  0  0  0  0  0
   -1.4795    0.8022   -0.3315 C   0  0  0  0  0  0  0  0  0  0  0  0
   -0.2591    0.2452   -0.6084 C   0  0  0  0  0  0  0  0  0  0  0  0
    1.0207    0.8868   -1.0085 C   0  0  2  0  0  0  0  0  0  0  0  0
    1.2271    0.7265   -2.4985 C   0  0  0  0  0  0  0  0  0  0  0  0
    1.2826   -0.6407   -2.9099 N   0  0  0  0  0  0  0  0  0  0  0  0
    2.0842    0.3037   -0.2417 N   0  0  0  0  0  0  0  0  0  0  0  0
    1.8359    0.4852    1.1600 C   0  0  0  0  0  0  0  0  0  0  0  0
    3.0019   -0.1567    1.9090 C   0  0  0  0  0  0  0  0  0  0  0  0
    3.0057   -1.5076    1.5456 O   0  0  0  0  0  0  0  0  0  0  0  0
   -0.4190   -1.0817   -0.4469 N   0  0  0  0  0  0  0  0  0  0  0  0
   -1.6731   -1.3016   -0.0915 N   0  0  0  0  0  0  0  0  0  0  0  0
   -4.6344   -0.4890    2.2825 H   0  0  0  0  0  0  0  0  0  0  0  0
   -4.0837    1.1962    2.1494 H   0  0  0  0  0  0  0  0  0  0  0  0
   -2.8990   -0.1362    2.3646 H   0  0  0  0  0  0  0  0  0  0  0  0
   -4.2341    0.8217   -0.2019 H   0  0  0  0  0  0  0  0  0  0  0  0
   -4.2615   -0.9695    0.0333 H   0  0  0  0  0  0  0  0  0  0  0  0
   -1.6884    1.8586   -0.3700 H   0  0  0  0  0  0  0  0  0  0  0  0
    0.9642    1.9626   -0.7572 H   0  0  0  0  0  0  0  0  0  0  0  0
    2.1650    1.2246   -2.7908 H   0  0  0  0  0  0  0  0  0  0  0  0
    0.3966    1.2415   -3.0220 H   0  0  0  0  0  0  0  0  0  0  0  0
    2.1842   -1.1056   -2.7130 H   0  0  0  0  0  0  0  0  0  0  0  0
    0.9531   -0.7831   -3.8947 H   0  0  0  0  0  0  0  0  0  0  0  0
    2.1274   -0.7356   -0.4119 H   0  0  0  0  0  0  0  0  0  0  0  0
    0.9253   -0.0605    1.5171 H   0  0  0  0  0  0  0  0  0  0  0  0
    1.6992    1.5472    1.4415 H   0  0  0  0  0  0  0  0  0  0  0  0
    2.9032   -0.0793    2.9913 H   0  0  0  0  0  0  0  0  0  0  0  0
    3.9229    0.2955    1.4924 H   0  0  0  0  0  0  0  0  0  0  0  0
    3.8673   -1.8226    1.2212 H   0  0  0  0  0  0  0  0  0  0  0  0
  1  2  1  0
  2  3  1  0
  3  4  1  0
  4  5  2  0
  5  6  1  0
  6  7  1  0
  7  8  1  0
  6  9  1  0
  9 10  1  0
 10 11  1  0
 11 12  1  0
  5 13  1  0
 13 14  2  0
 14  3  1  0
  1 15  1  0
  1 16  1  0
  1 17  1  0
  2 18  1  0
  2 19  1  0
  4 20  1  0
  6 21  1  6
  7 22  1  0
  7 23  1  0
  8 24  1  0
  8 25  1  0
  9 26  1  0
 10 27  1  0
 10 28  1  0
 11 29  1  0
 11 30  1  0
 12 31  1  0
M  END
$$$$

     RDKit          3D

 31 31  0  0  0  0  0  0  0  0999 V2000
    3.7679    1.7814    0.7332 C   0  0  0  0  0  0  0  0  0  0  0  0
    3.5961    0.7113   -0.3147 C   0  0  0  0  0  0  0  0  0  0  0  0
    2.2062    0.3485   -0.4952 N   0  0  0  0  0  0  0  0  0  0  0  0
    1.5248   -0.5927    0.1407 C   0  0  0  0  0  0  0  0  0  0  0  0
    0.2341   -0.5814   -0.3560 C   0  0  0  0  0  0  0  0  0  0  0  0
   -0.8900   -1.4601    0.0577 C   0  0  2  0  0  0  0  0  0  0  0  0
   -1.0539   -2.5790   -0.9348 C   0  0  0  0  0  0  0  0  0  0  0  0
   -1.3349   -2.1110   -2.2611 N   0  0  0  0  0  0  0  0  0  0  0  0
   -2.0838   -0.6734    0.2369 N   0  0  0  0  0  0  0  0  0  0  0  0
   -1.7746    0.4331    1.1142 C   0  0  0  0  0  0  0  0  0  0  0  0
   -2.9725    1.3156    1.3673 C   0  0  0  0  0  0  0  0  0  0  0  0
   -3.4342    1.8442    0.1481 O   0  0  0  0  0  0  0  0  0  0  0  0
    0.1898    0.3830   -1.2873 N   0  0  0  0  0  0  0  0  0  0  0  0
    1.3795    0.9214   -1.3499 N   0  0  0  0  0  0  0  0  0  0  0  0
    4.7154    2.3201    0.4999 H   0  0  0  0  0  0  0  0  0  0  0  0
    3.7952    1.3954    1.7593 H   0  0  0  0  0  0  0  0  0  0  0  0
    2.9081    2.4988    0.6601 H   0  0  0  0  0  0  0  0  0  0  0  0
    3.9978    1.0731   -1.2729 H   0  0  0  0  0  0  0  0  0  0  0  0
    4.1398   -0.1907    0.0187 H   0  0  0  0  0  0  0  0  0  0  0  0
    1.8706   -1.2600    0.9042 H   0  0  0  0  0  0  0  0  0  0  0  0
   -0.6440   -1.9066    1.0651 H   0  0  0  0  0  0  0  0  0  0  0  0
   -0.0752   -3.1178   -0.9793 H   0  0  0  0  0  0  0  0  0  0  0  0
   -1.8536   -3.2589   -0.5423 H   0  0  0  0  0  0  0  0  0  0  0  0
   -1.5967   -1.1017   -2.2854 H   0  0  0  0  0  0  0  0  0  0  0  0
   -2.0318   -2.6836   -2.7526 H   0  0  0  0  0  0  0  0  0  0  0  0
   -2.5634   -0.4219   -0.6295 H   0  0  0  0  0  0  0  0  0  0  0  0
   -1.3998    0.0560    2.0841 H   0  0  0  0  0  0  0  0  0  0  0  0
   -0.9862    1.0814    0.6703 H   0  0  0  0  0  0  0  0  0  0  0  0
   -3.7783    0.7890    1.9118 H   0  0  0  0  0  0  0  0  0  0  0  0
   -2.5921    2.1769    1.9869 H   0  0  0  0  0  0  0  0  0  0  0  0
   -3.2603    2.8094    0.1028 H   0  0  0  0  0  0  0  0  0  0  0  0
  1  2  1  0
  2  3  1  0
  3  4  1  0
  4  5  2  0
  5  6  1  0
  6  7  1  0
  7  8  1  0
  6  9  1  0
  9 10  1  0
 10 11  1  0
 11 12  1  0
  5 13  1  0
 13 14  2  0
 14  3  1  0
  1 15  1  0
  1 16  1  0
  1 17  1  0
  2 18  1  0
  2 19  1  0
  4 20  1  0
  6 21  1  1
  7 22  1  0
  7 23  1  0
  8 24  1  0
  8 25  1  0
  9 26  1  0
 10 27  1  0
 10 28  1  0
 11 29  1  0
 11 30  1  0
 12 31  1  0
M  END
$$$$

     RDKit          3D

 31 31  0  0  0  0  0  0  0  0999 V2000
    4.3935    1.5486    0.2504 C   0  0  0  0  0  0  0  0  0  0  0  0
    4.1044    0.2190   -0.4327 C   0  0  0  0  0  0  0  0  0  0  0  0
    2.6485    0.1144   -0.5456 N   0  0  0  0  0  0  0  0  0  0  0  0
    1.8349   -0.4494    0.3891 C   0  0  0  0  0  0  0  0  0  0  0  0
    0.5175   -0.3570   -0.0492 C   0  0  0  0  0  0  0  0  0  0  0  0
   -0.6824   -0.8424    0.6511 C   0  0  2  0  0  0  0  0  0  0  0  0
   -1.1207   -2.1564    0.0665 C   0  0  0  0  0  0  0  0  0  0  0  0
   -2.2686   -2.7453    0.6530 N   0  0  0  0  0  0  0  0  0  0  0  0
   -1.6851    0.1554    0.7426 N   0  0  0  0  0  0  0  0  0  0  0  0
   -2.3018    0.6187   -0.4407 C   0  0  0  0  0  0  0  0  0  0  0  0
   -3.2603    1.7466   -0.0140 C   0  0  0  0  0  0  0  0  0  0  0  0
   -4.2018    1.2625    0.8739 O   0  0  0  0  0  0  0  0  0  0  0  0
    0.5887    0.2599   -1.2354 N   0  0  0  0  0  0  0  0  0  0  0  0
    1.8594    0.5294   -1.5111 N   0  0  0  0  0  0  0  0  0  0  0  0
    4.7791    1.3229    1.2695 H   0  0  0  0  0  0  0  0  0  0  0  0
    3.4774    2.1478    0.3706 H   0  0  0  0  0  0  0  0  0  0  0  0
    5.1603    2.0528   -0.3470 H   0  0  0  0  0  0  0  0  0  0  0  0
    4.4859    0.1875   -1.4607 H   0  0  0  0  0  0  0  0  0  0  0  0
    4.4325   -0.6432    0.1676 H   0  0  0  0  0  0  0  0  0  0  0  0
    2.1800   -0.8839    1.2990 H   0  0  0  0  0  0  0  0  0  0  0  0
   -0.3903   -1.0852    1.7189 H   0  0  0  0  0  0  0  0  0  0  0  0
   -0.2624   -2.8629    0.1975 H   0  0  0  0  0  0  0  0  0  0  0  0
   -1.2921   -2.0519   -1.0276 H   0  0  0  0  0  0  0  0  0  0  0  0
   -2.1235   -3.4268    1.3972 H   0  0  0  0  0  0  0  0  0  0  0  0
   -3.1589   -2.2611    0.5858 H   0  0  0  0  0  0  0  0  0  0  0  0
   -2.3169    0.0371    1.5540 H   0  0  0  0  0  0  0  0  0  0  0  0
   -1.5804    1.0477   -1.1341 H   0  0  0  0  0  0  0  0  0  0  0  0
   -2.9591   -0.1508   -0.9289 H   0  0  0  0  0  0  0  0  0  0  0  0
   -3.7687    2.1553   -0.8884 H   0  0  0  0  0  0  0  0  0  0  0  0
   -2.6534    2.5906    0.4267 H   0  0  0  0  0  0  0  0  0  0  0  0
   -4.4356    1.9200    1.5805 H   0  0  0  0  0  0  0  0  0  0  0  0
  1  2  1  0
  2  3  1  0
  3  4  1  0
  4  5  2  0
  5  6  1  0
  6  7  1  0
  7  8  1  0
  6  9  1  0
  9 10  1  0
 10 11  1  0
 11 12  1  0
  5 13  1  0
 13 14  2  0
 14  3  1  0
  1 15  1  0
  1 16  1  0
  1 17  1  0
  2 18  1  0
  2 19  1  0
  4 20  1  0
  6 21  1  1
  7 22  1  0
  7 23  1  0
  8 24  1  0
  8 25  1  0
  9 26  1  0
 10 27  1  0
 10 28  1  0
 11 29  1  0
 11 30  1  0
 12 31  1  0
M  END
$$$$

     RDKit          3D

 31 31  0  0  0  0  0  0  0  0999 V2000
    4.7269    0.3274   -0.7800 C   0  0  0  0  0  0  0  0  0  0  0  0
    3.7612    1.4880   -0.5459 C   0  0  0  0  0  0  0  0  0  0  0  0
    2.3913    1.0054   -0.5001 N   0  0  0  0  0  0  0  0  0  0  0  0
    1.7109    0.5911    0.5989 C   0  0  0  0  0  0  0  0  0  0  0  0
    0.4335    0.2063    0.2488 C   0  0  0  0  0  0  0  0  0  0  0  0
   -0.6249   -0.3106    1.1616 C   0  0  2  0  0  0  0  0  0  0  0  0
   -0.6678   -1.8249    1.1347 C   0  0  0  0  0  0  0  0  0  0  0  0
   -0.9322   -2.4010   -0.1309 N   0  0  0  0  0  0  0  0  0  0  0  0
   -1.9110    0.2334    0.9722 N   0  0  0  0  0  0  0  0  0  0  0  0
   -2.5879   -0.0132   -0.2443 C   0  0  0  0  0  0  0  0  0  0  0  0
   -3.9466    0.7096   -0.1693 C   0  0  0  0  0  0  0  0  0  0  0  0
   -4.6719    0.5122   -1.3329 O   0  0  0  0  0  0  0  0  0  0  0  0
    0.3744    0.4019   -1.0794 N   0  0  0  0  0  0  0  0  0  0  0  0
    1.5489    0.8780   -1.5085 N   0  0  0  0  0  0  0  0  0  0  0  0
    5.7090    0.5225   -0.2651 H   0  0  0  0  0  0  0  0  0  0  0  0
    4.9474    0.2184   -1.8607 H   0  0  0  0  0  0  0  0  0  0  0  0
    4.3368   -0.5944   -0.3203 H   0  0  0  0  0  0  0  0  0  0  0  0
    3.8763    2.2621   -1.3357 H   0  0  0  0  0  0  0  0  0  0  0  0
    4.0115    1.9132    0.4442 H   0  0  0  0  0  0  0  0  0  0  0  0
    2.1231    0.5716    1.5947 H   0  0  0  0  0  0  0  0  0  0  0  0
   -0.3358   -0.0701    2.2364 H   0  0  0  0  0  0  0  0  0  0  0  0
    0.3583   -2.1701    1.4590 H   0  0  0  0  0  0  0  0  0  0  0  0
   -1.3554   -2.2395    1.8789 H   0  0  0  0  0  0  0  0  0  0  0  0
   -0.6719   -1.8821   -0.9682 H   0  0  0  0  0  0  0  0  0  0  0  0
   -1.6345   -3.1354   -0.1978 H   0  0  0  0  0  0  0  0  0  0  0  0
   -2.5092    0.1867    1.8152 H   0  0  0  0  0  0  0  0  0  0  0  0
   -2.0779    0.3208   -1.1482 H   0  0  0  0  0  0  0  0  0  0  0  0
   -2.8909   -1.0982   -0.2678 H   0  0  0  0  0  0  0  0  0  0  0  0
   -3.8097    1.7941    0.0008 H   0  0  0  0  0  0  0  0  0  0  0  0
   -4.5364    0.2632    0.6796 H   0  0  0  0  0  0  0  0  0  0  0  0
   -5.1455    1.3336   -1.5700 H   0  0  0  0  0  0  0  0  0  0  0  0
  1  2  1  0
  2  3  1  0
  3  4  1  0
  4  5  2  0
  5  6  1  0
  6  7  1  0
  7  8  1  0
  6  9  1  0
  9 10  1  0
 10 11  1  0
 11 12  1  0
  5 13  1  0
 13 14  2  0
 14  3  1  0
  1 15  1  0
  1 16  1  0
  1 17  1  0
  2 18  1  0
  2 19  1  0
  4 20  1  0
  6 21  1  1
  7 22  1  0
  7 23  1  0
  8 24  1  0
  8 25  1  0
  9 26  1  0
 10 27  1  0
 10 28  1  0
 11 29  1  0
 11 30  1  0
 12 31  1  0
M  END
$$$$

     RDKit          3D

 31 31  0  0  0  0  0  0  0  0999 V2000
    3.6100   -2.0611   -0.1632 C   0  0  0  0  0  0  0  0  0  0  0  0
    3.7096   -0.5998   -0.5430 C   0  0  0  0  0  0  0  0  0  0  0  0
    2.5695    0.1384   -0.0162 N   0  0  0  0  0  0  0  0  0  0  0  0
    1.4274    0.3114   -0.6747 C   0  0  0  0  0  0  0  0  0  0  0  0
    0.5974    1.0535    0.1369 C   0  0  0  0  0  0  0  0  0  0  0  0
   -0.7822    1.4706   -0.2160 C   0  0  2  0  0  0  0  0  0  0  0  0
   -1.4277    2.0494    1.0103 C   0  0  0  0  0  0  0  0  0  0  0  0
   -2.7838    2.4876    0.7722 N   0  0  0  0  0  0  0  0  0  0  0  0
   -1.5463    0.3963   -0.7888 N   0  0  0  0  0  0  0  0  0  0  0  0
   -1.6478   -0.7062    0.1437 C   0  0  0  0  0  0  0  0  0  0  0  0
   -2.4405   -1.8507   -0.4572 C   0  0  0  0  0  0  0  0  0  0  0  0
   -3.7040   -1.3782   -0.7563 O   0  0  0  0  0  0  0  0  0  0  0  0
    1.2648    1.3084    1.2672 N   0  0  0  0  0  0  0  0  0  0  0  0
    2.4525    0.7472    1.1536 N   0  0  0  0  0  0  0  0  0  0  0  0
    4.1781   -2.2160    0.7674 H   0  0  0  0  0  0  0  0  0  0  0  0
    3.9978   -2.6736   -1.0028 H   0  0  0  0  0  0  0  0  0  0  0  0
    2.5435   -2.3172   -0.0648 H   0  0  0  0  0  0  0  0  0  0  0  0
    3.7636   -0.5218   -1.6487 H   0  0  0  0  0  0  0  0  0  0  0  0
    4.6393   -0.1841   -0.0870 H   0  0  0  0  0  0  0  0  0  0  0  0
    1.2201   -0.0759   -1.6708 H   0  0  0  0  0  0  0  0  0  0  0  0
   -0.7429    2.3003   -0.9653 H   0  0  0  0  0  0  0  0  0  0  0  0
   -0.7972    2.9253    1.3110 H   0  0  0  0  0  0  0  0  0  0  0  0
   -1.3632    1.3319    1.8275 H   0  0  0  0  0  0  0  0  0  0  0  0
   -3.4085    1.8321    1.2998 H   0  0  0  0  0  0  0  0  0  0  0  0
   -2.8754    3.4632    1.0780 H   0  0  0  0  0  0  0  0  0  0  0  0
   -1.1327    0.0556   -1.6728 H   0  0  0  0  0  0  0  0  0  0  0  0
   -0.6405   -1.0547    0.4038 H   0  0  0  0  0  0  0  0  0  0  0  0
   -2.2025   -0.3367    1.0390 H   0  0  0  0  0  0  0  0  0  0  0  0
   -1.9151   -2.1728   -1.3811 H   0  0  0  0  0  0  0  0  0  0  0  0
   -2.4346   -2.6762    0.2752 H   0  0  0  0  0  0  0  0  0  0  0  0
   -4.1286   -1.0461    0.0861 H   0  0  0  0  0  0  0  0  0  0  0  0
  1  2  1  0
  2  3  1  0
  3  4  1  0
  4  5  2  0
  5  6  1  0
  6  7  1  0
  7  8  1  0
  6  9  1  0
  9 10  1  0
 10 11  1  0
 11 12  1  0
  5 13  1  0
 13 14  2  0
 14  3  1  0
  1 15  1  0
  1 16  1  0
  1 17  1  0
  2 18  1  0
  2 19  1  0
  4 20  1  0
  6 21  1  6
  7 22  1  0
  7 23  1  0
  8 24  1  0
  8 25  1  0
  9 26  1  0
 10 27  1  0
 10 28  1  0
 11 29  1  0
 11 30  1  0
 12 31  1  0
M  END
$$$$
