
     RDKit          3D

 22 22  0  0  0  0  0  0  0  0999 V2000
   -2.8123    1.8402   -0.3517 N   0  0  0  0  0  0  0  0  0  0  0  0
   -2.7716    0.4861    0.1677 C   0  0  0  0  0  0  0  0  0  0  0  0
   -1.6905   -0.3222   -0.5150 C   0  0  2  0  0  0  0  0  0  0  0  0
   -1.4850   -1.7319   -0.1275 C   0  0  0  0  0  0  0  0  0  0  0  0
   -0.5273   -0.7187    0.3784 C   0  0  1  0  0  0  0  0  0  0  0  0
    0.8032   -0.5529   -0.2798 C   0  0  0  0  0  0  0  0  0  0  0  0
    0.8624   -0.8860   -1.4938 O   0  0  0  0  0  0  0  0  0  0  0  0
    1.9445   -0.0575    0.3847 N   0  0  0  0  0  0  0  0  0  0  0  0
    3.1817    0.0830   -0.2754 C   0  0  0  0  0  0  0  0  0  0  0  0
    4.3397    0.5748    0.3608 N   0  0  0  0  0  0  0  0  0  0  0  0
    3.2563   -0.2461   -1.4897 O   0  0  0  0  0  0  0  0  0  0  0  0
   -2.1820    2.4836    0.1450 H   0  0  0  0  0  0  0  0  0  0  0  0
   -2.6484    1.7810   -1.3785 H   0  0  0  0  0  0  0  0  0  0  0  0
   -2.5671    0.5693    1.2569 H   0  0  0  0  0  0  0  0  0  0  0  0
   -3.7483   -0.0192   -0.0087 H   0  0  0  0  0  0  0  0  0  0  0  0
   -1.4988   -0.0703   -1.5716 H   0  0  0  0  0  0  0  0  0  0  0  0
   -2.1927   -2.1272    0.6283 H   0  0  0  0  0  0  0  0  0  0  0  0
   -1.0955   -2.4556   -0.8798 H   0  0  0  0  0  0  0  0  0  0  0  0
   -0.5346   -0.4163    1.4373 H   0  0  0  0  0  0  0  0  0  0  0  0
    1.8561    0.2098    1.3969 H   0  0  0  0  0  0  0  0  0  0  0  0
    5.1808   -0.0168    0.5480 H   0  0  0  0  0  0  0  0  0  0  0  0
    4.3294    1.5926    0.6513 H   0  0  0  0  0  0  0  0  0  0  0  0
  1  2  1  0
  2  3  1  0
  3  4  1  0
  4  5  1  0
  5  6  1  0
  6  7  2  0
  6  8  1  0
  8  9  1  0
  9 10  1  0
  9 11  2  0
  5  3  1  0
  1 12  1  0
  1 13  1  0
  2 14  1  0
  2 15  1  0
  3 16  1  6
  4 17  1  0
  4 18  1  0
  5 19  1  1
  8 20  1  0
 10 21  1  0
 10 22  1  0
M  END
$$$$

     RDKit          3D

 22 22  0  0  0  0  0  0  0  0999 V2000
   -3.8542    0.1503   -0.2468 N   0  0  0  0  0  0  0  0  0  0  0  0
   -2.7246    0.5124    0.5942 C   0  0  0  0  0  0  0  0  0  0  0  0
   -1.4903    0.3914   -0.2683 C   0  0  2  0  0  0  0  0  0  0  0  0
   -1.2764   -1.0041   -0.8128 C   0  0  0  0  0  0  0  0  0  0  0  0
   -0.3118   -0.3789    0.1716 C   0  0  1  0  0  0  0  0  0  0  0  0
    0.9859    0.0070   -0.4512 C   0  0  0  0  0  0  0  0  0  0  0  0
    1.0488    0.5190   -1.5988 O   0  0  0  0  0  0  0  0  0  0  0  0
    2.2276   -0.1906    0.2372 N   0  0  0  0  0  0  0  0  0  0  0  0
    3.4715    0.1757   -0.3515 C   0  0  0  0  0  0  0  0  0  0  0  0
    4.6897   -0.0266    0.3431 N   0  0  0  0  0  0  0  0  0  0  0  0
    3.4956    0.6881   -1.5080 O   0  0  0  0  0  0  0  0  0  0  0  0
   -4.7589    0.2071    0.2499 H   0  0  0  0  0  0  0  0  0  0  0  0
   -3.8612    0.7771   -1.0868 H   0  0  0  0  0  0  0  0  0  0  0  0
   -2.8732    1.5671    0.9538 H   0  0  0  0  0  0  0  0  0  0  0  0
   -2.6860   -0.1583    1.4554 H   0  0  0  0  0  0  0  0  0  0  0  0
   -1.3309    1.2637   -0.9331 H   0  0  0  0  0  0  0  0  0  0  0  0
   -1.9300   -1.8293   -0.4889 H   0  0  0  0  0  0  0  0  0  0  0  0
   -1.0252   -1.0310   -1.8873 H   0  0  0  0  0  0  0  0  0  0  0  0
   -0.2297   -0.8157    1.1769 H   0  0  0  0  0  0  0  0  0  0  0  0
    2.1809   -0.6115    1.1817 H   0  0  0  0  0  0  0  0  0  0  0  0
    5.1167    0.7505    0.8903 H   0  0  0  0  0  0  0  0  0  0  0  0
    5.1358   -0.9632    0.2885 H   0  0  0  0  0  0  0  0  0  0  0  0
  1  2  1  0
  2  3  1  0
  3  4  1  0
  4  5  1  0
  5  6  1  0
  6  7  2  0
  6  8  1  0
  8  9  1  0
  9 10  1  0
  9 11  2  0
  5  3  1  0
  1 12  1  0
  1 13  1  0
  2 14  1  0
  2 15  1  0
  3 16  1  6
  4 17  1  0
  4 18  1  0
  5 19  1  1
  8 20  1  0
 10 21  1  0
 10 22  1  0
M  END
$$$$

     RDKit          3D

 22 22  0  0  0  0  0  0  0  0999 V2000
   -3.9079    0.1810    0.2601 N   0  0  0  0  0  0  0  0  0  0  0  0
   -2.5985    0.7689    0.0641 C   0  0  0  0  0  0  0  0  0  0  0  0
   -1.5542   -0.2686   -0.2584 C   0  0  2  0  0  0  0  0  0  0  0  0
   -1.2510   -1.3704    0.6904 C   0  0  0  0  0  0  0  0  0  0  0  0
   -0.3082   -0.2013    0.5825 C   0  0  1  0  0  0  0  0  0  0  0  0
    0.9651   -0.3803   -0.1286 C   0  0  0  0  0  0  0  0  0  0  0  0
    1.0270   -1.1322   -1.1321 O   0  0  0  0  0  0  0  0  0  0  0  0
    2.1289    0.2974    0.3182 N   0  0  0  0  0  0  0  0  0  0  0  0
    3.3905    0.1456   -0.3532 C   0  0  0  0  0  0  0  0  0  0  0  0
    4.5120    0.8562    0.1524 N   0  0  0  0  0  0  0  0  0  0  0  0
    3.4854   -0.5917   -1.3500 O   0  0  0  0  0  0  0  0  0  0  0  0
   -3.8366   -0.8160    0.4972 H   0  0  0  0  0  0  0  0  0  0  0  0
   -4.5789    0.4086   -0.4852 H   0  0  0  0  0  0  0  0  0  0  0  0
   -2.6226    1.4880   -0.7844 H   0  0  0  0  0  0  0  0  0  0  0  0
   -2.3237    1.2865    0.9856 H   0  0  0  0  0  0  0  0  0  0  0  0
   -1.4197   -0.5127   -1.3463 H   0  0  0  0  0  0  0  0  0  0  0  0
   -1.8450   -1.5137    1.6091 H   0  0  0  0  0  0  0  0  0  0  0  0
   -0.8810   -2.3280    0.2678 H   0  0  0  0  0  0  0  0  0  0  0  0
   -0.2896    0.4816    1.4656 H   0  0  0  0  0  0  0  0  0  0  0  0
    2.0297    0.9131    1.1580 H   0  0  0  0  0  0  0  0  0  0  0  0
    4.4166    1.8559    0.4960 H   0  0  0  0  0  0  0  0  0  0  0  0
    5.4617    0.4319    0.2064 H   0  0  0  0  0  0  0  0  0  0  0  0
  1  2  1  0
  2  3  1  0
  3  4  1  0
  4  5  1  0
  5  6  1  0
  6  7  2  0
  6  8  1  0
  8  9  1  0
  9 10  1  0
  9 11  2  0
  5  3  1  0
  1 12  1  0
  1 13  1  0
  2 14  1  0
  2 15  1  0
  3 16  1  6
  4 17  1  0
  4 18  1  0
  5 19  1  1
  8 20  1  0
 10 21  1  0
 10 22  1  0
M  END
$$$$

     RDKit          3D

 22 22  0  0  0  0  0  0  0  0999 V2000
   -3.5735   -0.6443    0.1913 N   0  0  0  0  0  0  0  0  0  0  0  0
   -2.4781   -0.4551   -0.7294 C   0  0  0  0  0  0  0  0  0  0  0  0
   -1.1825   -0.1574   -0.0492 C   0  0  2  0  0  0  0  0  0  0  0  0
   -1.0228    1.0404    0.8258 C   0  0  0  0  0  0  0  0  0  0  0  0
   -0.4413    1.0404   -0.5303 C   0  0  1  0  0  0  0  0  0  0  0  0
    1.0110    0.9066   -0.7576 C   0  0  0  0  0  0  0  0  0  0  0  0
    1.6039    1.4842   -1.7056 O   0  0  0  0  0  0  0  0  0  0  0  0
    1.7899    0.1052    0.1072 N   0  0  0  0  0  0  0  0  0  0  0  0
    3.2053   -0.0661   -0.0590 C   0  0  0  0  0  0  0  0  0  0  0  0
    3.9676   -0.8719    0.8166 N   0  0  0  0  0  0  0  0  0  0  0  0
    3.7762    0.5315   -1.0276 O   0  0  0  0  0  0  0  0  0  0  0  0
   -3.1945   -1.0636    1.0602 H   0  0  0  0  0  0  0  0  0  0  0  0
   -4.2857   -1.2349   -0.2888 H   0  0  0  0  0  0  0  0  0  0  0  0
   -2.3520   -1.4179   -1.2853 H   0  0  0  0  0  0  0  0  0  0  0  0
   -2.7012    0.3055   -1.5018 H   0  0  0  0  0  0  0  0  0  0  0  0
   -0.6311   -1.0556    0.3050 H   0  0  0  0  0  0  0  0  0  0  0  0
   -1.9611    1.6059    1.0037 H   0  0  0  0  0  0  0  0  0  0  0  0
   -0.3802    0.9775    1.7310 H   0  0  0  0  0  0  0  0  0  0  0  0
   -0.9527    1.6924   -1.2686 H   0  0  0  0  0  0  0  0  0  0  0  0
    1.2945   -0.3737    0.8942 H   0  0  0  0  0  0  0  0  0  0  0  0
    3.8759   -0.7897    1.8417 H   0  0  0  0  0  0  0  0  0  0  0  0
    4.6324   -1.5594    0.4265 H   0  0  0  0  0  0  0  0  0  0  0  0
  1  2  1  0
  2  3  1  0
  3  4  1  0
  4  5  1  0
  5  6  1  0
  6  7  2  0
  6  8  1  0
  8  9  1  0
  9 10  1  0
  9 11  2  0
  5  3  1  0
  1 12  1  0
  1 13  1  0
  2 14  1  0
  2 15  1  0
  3 16  1  1
  4 17  1  0
  4 18  1  0
  5 19  1  6
  8 20  1  0
 10 21  1  0
 10 22  1  0
M  END
$$$$

     RDKit          3D

 22 22  0  0  0  0  0  0  0  0999 V2000
   -3.5616    0.5879    0.5672 N   0  0  0  0  0  0  0  0  0  0  0  0
   -2.4057   -0.2771    0.6508 C   0  0  0  0  0  0  0  0  0  0  0  0
   -1.1544    0.3537    0.1430 C   0  0  2  0  0  0  0  0  0  0  0  0
   -1.0139    0.8336   -1.2491 C   0  0  0  0  0  0  0  0  0  0  0  0
   -0.4361   -0.4880   -0.9297 C   0  0  1  0  0  0  0  0  0  0  0  0
    0.9839   -0.6826   -0.6426 C   0  0  0  0  0  0  0  0  0  0  0  0
    1.5146   -1.7989   -0.8732 O   0  0  0  0  0  0  0  0  0  0  0  0
    1.8377    0.3224   -0.1066 N   0  0  0  0  0  0  0  0  0  0  0  0
    3.2233    0.0582    0.1495 C   0  0  0  0  0  0  0  0  0  0  0  0
    4.0435    1.0756    0.6812 N   0  0  0  0  0  0  0  0  0  0  0  0
    3.6742   -1.0930   -0.1121 O   0  0  0  0  0  0  0  0  0  0  0  0
   -3.7790    1.0572    1.4729 H   0  0  0  0  0  0  0  0  0  0  0  0
   -4.3790    0.0126    0.2535 H   0  0  0  0  0  0  0  0  0  0  0  0
   -2.6029   -1.2707    0.1955 H   0  0  0  0  0  0  0  0  0  0  0  0
   -2.2603   -0.4890    1.7463 H   0  0  0  0  0  0  0  0  0  0  0  0
   -0.5345    0.8863    0.8893 H   0  0  0  0  0  0  0  0  0  0  0  0
   -1.9209    0.8692   -1.8864 H   0  0  0  0  0  0  0  0  0  0  0  0
   -0.3449    1.7133   -1.4465 H   0  0  0  0  0  0  0  0  0  0  0  0
   -0.9679   -1.3524   -1.3407 H   0  0  0  0  0  0  0  0  0  0  0  0
    1.4010    1.2511    0.0864 H   0  0  0  0  0  0  0  0  0  0  0  0
    4.0752    1.9992    0.2280 H   0  0  0  0  0  0  0  0  0  0  0  0
    4.6077    0.8864    1.5233 H   0  0  0  0  0  0  0  0  0  0  0  0
  1  2  1  0
  2  3  1  0
  3  4  1  0
  4  5  1  0
  5  6  1  0
  6  7  2  0
  6  8  1  0
  8  9  1  0
  9 10  1  0
  9 11  2  0
  5  3  1  0
  1 12  1  0
  1 13  1  0
  2 14  1  0
  2 15  1  0
  3 16  1  1
  4 17  1  0
  4 18  1  0
  5 19  1  6
  8 20  1  0
 10 21  1  0
 10 22  1  0
M  END
$$$$

     RDKit          3D

 22 22  0  0  0  0  0  0  0  0999 V2000
   -3.1395    1.1439   -0.4197 N   0  0  0  0  0  0  0  0  0  0  0  0
   -2.8035   -0.1975    0.0367 C   0  0  0  0  0  0  0  0  0  0  0  0
   -1.5043   -0.6091   -0.5933 C   0  0  2  0  0  0  0  0  0  0  0  0
   -0.9203   -1.9550   -0.2941 C   0  0  0  0  0  0  0  0  0  0  0  0
   -0.3438   -0.7315    0.2940 C   0  0  1  0  0  0  0  0  0  0  0  0
    0.9521   -0.2535   -0.2562 C   0  0  0  0  0  0  0  0  0  0  0  0
    1.1795   -0.3929   -1.4712 O   0  0  0  0  0  0  0  0  0  0  0  0
    1.9345    0.3542    0.5560 N   0  0  0  0  0  0  0  0  0  0  0  0
    3.1597    0.7911   -0.0390 C   0  0  0  0  0  0  0  0  0  0  0  0
    4.1540    1.4039    0.7712 N   0  0  0  0  0  0  0  0  0  0  0  0
    3.3362    0.6248   -1.2732 O   0  0  0  0  0  0  0  0  0  0  0  0
   -4.1592    1.2974   -0.2861 H   0  0  0  0  0  0  0  0  0  0  0  0
   -2.6401    1.8360    0.1901 H   0  0  0  0  0  0  0  0  0  0  0  0
   -3.5847   -0.9053   -0.3059 H   0  0  0  0  0  0  0  0  0  0  0  0
   -2.6995   -0.1845    1.1391 H   0  0  0  0  0  0  0  0  0  0  0  0
   -1.3852   -0.2657   -1.6429 H   0  0  0  0  0  0  0  0  0  0  0  0
   -1.5241   -2.6745    0.3002 H   0  0  0  0  0  0  0  0  0  0  0  0
   -0.3590   -2.4706   -1.1217 H   0  0  0  0  0  0  0  0  0  0  0  0
   -0.4785   -0.5745    1.3870 H   0  0  0  0  0  0  0  0  0  0  0  0
    1.7803    0.4873    1.5733 H   0  0  0  0  0  0  0  0  0  0  0  0
    5.1521    1.4235    0.4900 H   0  0  0  0  0  0  0  0  0  0  0  0
    3.8932    1.8526    1.6787 H   0  0  0  0  0  0  0  0  0  0  0  0
  1  2  1  0
  2  3  1  0
  3  4  1  0
  4  5  1  0
  5  6  1  0
  6  7  2  0
  6  8  1  0
  8  9  1  0
  9 10  1  0
  9 11  2  0
  5  3  1  0
  1 12  1  0
  1 13  1  0
  2 14  1  0
  2 15  1  0
  3 16  1  6
  4 17  1  0
  4 18  1  0
  5 19  1  1
  8 20  1  0
 10 21  1  0
 10 22  1  0
M  END
$$$$

     RDKit          3D

 22 22  0  0  0  0  0  0  0  0999 V2000
   -3.2058    0.9858    1.1883 N   0  0  0  0  0  0  0  0  0  0  0  0
   -2.8098    0.0459    0.1600 C   0  0  0  0  0  0  0  0  0  0  0  0
   -1.3237    0.0322   -0.0652 C   0  0  2  0  0  0  0  0  0  0  0  0
   -0.8446   -0.9149   -1.1128 C   0  0  0  0  0  0  0  0  0  0  0  0
   -0.4966   -1.1215    0.3642 C   0  0  1  0  0  0  0  0  0  0  0  0
    0.9319   -0.9609    0.6482 C   0  0  0  0  0  0  0  0  0  0  0  0
    1.4819   -1.7672    1.4415 O   0  0  0  0  0  0  0  0  0  0  0  0
    1.7438    0.0540    0.0820 N   0  0  0  0  0  0  0  0  0  0  0  0
    3.1261    0.1410    0.4108 C   0  0  0  0  0  0  0  0  0  0  0  0
    3.9415    1.1519   -0.1513 N   0  0  0  0  0  0  0  0  0  0  0  0
    3.6199   -0.6988    1.2143 O   0  0  0  0  0  0  0  0  0  0  0  0
   -2.7567    0.8331    2.0969 H   0  0  0  0  0  0  0  0  0  0  0  0
   -3.1898    1.9702    0.8472 H   0  0  0  0  0  0  0  0  0  0  0  0
   -3.2887    0.4207   -0.7921 H   0  0  0  0  0  0  0  0  0  0  0  0
   -3.2455   -0.9385    0.3461 H   0  0  0  0  0  0  0  0  0  0  0  0
   -0.8522    1.0348    0.0451 H   0  0  0  0  0  0  0  0  0  0  0  0
   -0.0721   -0.5053   -1.7858 H   0  0  0  0  0  0  0  0  0  0  0  0
   -1.5466   -1.6199   -1.5577 H   0  0  0  0  0  0  0  0  0  0  0  0
   -1.0339   -1.9384    0.8534 H   0  0  0  0  0  0  0  0  0  0  0  0
    1.3095    0.7339   -0.5785 H   0  0  0  0  0  0  0  0  0  0  0  0
    4.9667    1.0069   -0.2512 H   0  0  0  0  0  0  0  0  0  0  0  0
    3.5449    2.0548   -0.4755 H   0  0  0  0  0  0  0  0  0  0  0  0
  1  2  1  0
  2  3  1  0
  3  4  1  0
  4  5  1  0
  5  6  1  0
  6  7  2  0
  6  8  1  0
  8  9  1  0
  9 10  1  0
  9 11  2  0
  5  3  1  0
  1 12  1  0
  1 13  1  0
  2 14  1  0
  2 15  1  0
  3 16  1  6
  4 17  1  0
  4 18  1  0
  5 19  1  1
  8 20  1  0
 10 21  1  0
 10 22  1  0
M  END
$$$$

     RDKit          3D

 22 22  0  0  0  0  0  0  0  0999 V2000
   -2.6576    0.9597    0.8641 N   0  0  0  0  0  0  0  0  0  0  0  0
   -2.6193    0.3874   -0.4602 C   0  0  0  0  0  0  0  0  0  0  0  0
   -1.4674   -0.5634   -0.6469 C   0  0  2  0  0  0  0  0  0  0  0  0
   -1.3088   -1.7666    0.1754 C   0  0  0  0  0  0  0  0  0  0  0  0
   -0.4741   -0.5717    0.5107 C   0  0  1  0  0  0  0  0  0  0  0  0
    0.9275   -0.4907    0.0776 C   0  0  0  0  0  0  0  0  0  0  0  0
    1.2877   -1.0719   -0.9753 O   0  0  0  0  0  0  0  0  0  0  0  0
    1.8462    0.2509    0.8705 N   0  0  0  0  0  0  0  0  0  0  0  0
    3.2016    0.3371    0.4642 C   0  0  0  0  0  0  0  0  0  0  0  0
    4.1255    1.0743    1.2482 N   0  0  0  0  0  0  0  0  0  0  0  0
    3.5837   -0.2312   -0.5771 O   0  0  0  0  0  0  0  0  0  0  0  0
   -3.3565    0.5284    1.4821 H   0  0  0  0  0  0  0  0  0  0  0  0
   -2.6570    1.9957    0.8458 H   0  0  0  0  0  0  0  0  0  0  0  0
   -2.5196    1.2237   -1.1824 H   0  0  0  0  0  0  0  0  0  0  0  0
   -3.5867   -0.1183   -0.7286 H   0  0  0  0  0  0  0  0  0  0  0  0
   -1.0817   -0.5939   -1.6823 H   0  0  0  0  0  0  0  0  0  0  0  0
   -2.1224   -2.0615    0.8745 H   0  0  0  0  0  0  0  0  0  0  0  0
   -0.7876   -2.6363   -0.2837 H   0  0  0  0  0  0  0  0  0  0  0  0
   -0.7620   -0.0539    1.4355 H   0  0  0  0  0  0  0  0  0  0  0  0
    1.5240    0.7239    1.7389 H   0  0  0  0  0  0  0  0  0  0  0  0
    4.6865    1.8105    0.7746 H   0  0  0  0  0  0  0  0  0  0  0  0
    4.2179    0.8680    2.2480 H   0  0  0  0  0  0  0  0  0  0  0  0
  1  2  1  0
  2  3  1  0
  3  4  1  0
  4  5  1  0
  5  6  1  0
  6  7  2  0
  6  8  1  0
  8  9  1  0
  9 10  1  0
  9 11  2  0
  5  3  1  0
  1 12  1  0
  1 13  1  0
  2 14  1  0
  2 15  1  0
  3 16  1  6
  4 17  1  0
  4 18  1  0
  5 19  1  1
  8 20  1  0
 10 21  1  0
 10 22  1  0
M  END
$$$$
