
     RDKit          3D

 21 20  0  0  0  0  0  0  0  0999 V2000
    2.8651   -1.3030    0.4477 C   0  0  0  0  0  0  0  0  0  0  0  0
    1.7647   -1.0735   -0.4123 O   0  0  0  0  0  0  0  0  0  0  0  0
    0.7440   -0.2457    0.0319 C   0  0  0  0  0  0  0  0  0  0  0  0
    0.7858    0.2923    1.1688 O   0  0  0  0  0  0  0  0  0  0  0  0
   -0.4441    0.0396   -0.8204 C   0  0  1  0  0  0  0  0  0  0  0  0
   -1.1606   -1.2848   -1.0693 C   0  0  0  0  0  0  0  0  0  0  0  0
   -1.5870   -1.8248    0.2138 N   0  0  0  0  0  0  0  0  0  0  0  0
   -1.3546    0.8912   -0.1957 O   0  0  0  0  0  0  0  0  0  0  0  0
   -1.0438    2.1784    0.2219 C   0  0  0  0  0  0  0  0  0  0  0  0
    0.1422    2.6112   -0.0091 N   0  0  0  0  0  0  0  0  0  0  0  0
   -2.0083    2.9589    0.8710 O   0  0  0  0  0  0  0  0  0  0  0  0
    2.6696   -2.2691    0.9618 H   0  0  0  0  0  0  0  0  0  0  0  0
    3.8102   -1.4389   -0.1184 H   0  0  0  0  0  0  0  0  0  0  0  0
    2.9509   -0.4580    1.1691 H   0  0  0  0  0  0  0  0  0  0  0  0
   -0.0657    0.4354   -1.7790 H   0  0  0  0  0  0  0  0  0  0  0  0
   -2.0546   -1.1122   -1.7065 H   0  0  0  0  0  0  0  0  0  0  0  0
   -0.5210   -2.0117   -1.5887 H   0  0  0  0  0  0  0  0  0  0  0  0
   -1.9556   -1.0707    0.8238 H   0  0  0  0  0  0  0  0  0  0  0  0
   -2.2949   -2.5849    0.0800 H   0  0  0  0  0  0  0  0  0  0  0  0
    0.4663    3.5442    0.2596 H   0  0  0  0  0  0  0  0  0  0  0  0
   -1.7087    3.7260    1.4501 H   0  0  0  0  0  0  0  0  0  0  0  0
  1  2  1  0
  2  3  1  0
  3  4  2  0
  3  5  1  0
  5  6  1  0
  6  7  1  0
  5  8  1  0
  8  9  1  0
  9 10  2  3
  9 11  1  0
  1 12  1  0
  1 13  1  0
  1 14  1  0
  5 15  1  6
  6 16  1  0
  6 17  1  0
  7 18  1  0
  7 19  1  0
 10 20  1  0
 11 21  1  0
M  END
$$$$

     RDKit          3D

 21 20  0  0  0  0  0  0  0  0999 V2000
   -3.0934   -0.2987   -0.0246 C   0  0  0  0  0  0  0  0  0  0  0  0
   -1.8670    0.3279   -0.3096 O   0  0  0  0  0  0  0  0  0  0  0  0
   -0.7156   -0.3952   -0.6115 C   0  0  0  0  0  0  0  0  0  0  0  0
   -0.8159   -1.6469   -0.6196 O   0  0  0  0  0  0  0  0  0  0  0  0
    0.5563    0.3027   -0.9058 C   0  0  1  0  0  0  0  0  0  0  0  0
    0.8311    1.4384    0.0389 C   0  0  0  0  0  0  0  0  0  0  0  0
   -0.3563    2.2581    0.2318 N   0  0  0  0  0  0  0  0  0  0  0  0
    1.6312   -0.5409   -1.1514 O   0  0  0  0  0  0  0  0  0  0  0  0
    2.1832   -1.4811   -0.3293 C   0  0  0  0  0  0  0  0  0  0  0  0
    1.7358   -1.6595    0.8307 N   0  0  0  0  0  0  0  0  0  0  0  0
    3.2518   -2.2511   -0.7777 O   0  0  0  0  0  0  0  0  0  0  0  0
   -3.9028   -0.0041   -0.7212 H   0  0  0  0  0  0  0  0  0  0  0  0
   -2.9427   -1.3978   -0.1538 H   0  0  0  0  0  0  0  0  0  0  0  0
   -3.3522   -0.0482    1.0258 H   0  0  0  0  0  0  0  0  0  0  0  0
    0.3520    0.8165   -1.9101 H   0  0  0  0  0  0  0  0  0  0  0  0
    1.1932    1.0880    1.0089 H   0  0  0  0  0  0  0  0  0  0  0  0
    1.6121    2.1166   -0.3815 H   0  0  0  0  0  0  0  0  0  0  0  0
   -0.4602    2.9401   -0.5511 H   0  0  0  0  0  0  0  0  0  0  0  0
   -0.3662    2.7058    1.1553 H   0  0  0  0  0  0  0  0  0  0  0  0
    0.9872   -1.2305    1.3592 H   0  0  0  0  0  0  0  0  0  0  0  0
    3.5382   -3.0403   -0.2415 H   0  0  0  0  0  0  0  0  0  0  0  0
  1  2  1  0
  2  3  1  0
  3  4  2  0
  3  5  1  0
  5  6  1  0
  6  7  1  0
  5  8  1  0
  8  9  1  0
  9 10  2  3
  9 11  1  0
  1 12  1  0
  1 13  1  0
  1 14  1  0
  5 15  1  6
  6 16  1  0
  6 17  1  0
  7 18  1  0
  7 19  1  0
 10 20  1  0
 11 21  1  0
M  END
$$$$

     RDKit          3D

 21 20  0  0  0  0  0  0  0  0999 V2000
    3.2165    0.1108    0.7234 C   0  0  0  0  0  0  0  0  0  0  0  0
    2.1368   -0.2348   -0.1227 O   0  0  0  0  0  0  0  0  0  0  0  0
    0.9813    0.5456   -0.1932 C   0  0  0  0  0  0  0  0  0  0  0  0
    0.9434    1.5550    0.5183 O   0  0  0  0  0  0  0  0  0  0  0  0
   -0.0784    0.0843   -1.1122 C   0  0  1  0  0  0  0  0  0  0  0  0
   -0.3757   -1.3893   -0.9386 C   0  0  0  0  0  0  0  0  0  0  0  0
   -1.0734   -1.7051    0.2606 N   0  0  0  0  0  0  0  0  0  0  0  0
   -1.2062    0.8904   -1.1466 O   0  0  0  0  0  0  0  0  0  0  0  0
   -2.0281    1.1855   -0.0828 C   0  0  0  0  0  0  0  0  0  0  0  0
   -1.5736    0.8397    1.0740 N   0  0  0  0  0  0  0  0  0  0  0  0
   -3.2611    1.8118   -0.2418 O   0  0  0  0  0  0  0  0  0  0  0  0
    4.1377   -0.2627    0.2406 H   0  0  0  0  0  0  0  0  0  0  0  0
    3.0899   -0.3307    1.7394 H   0  0  0  0  0  0  0  0  0  0  0  0
    3.2542    1.2246    0.7589 H   0  0  0  0  0  0  0  0  0  0  0  0
    0.3723    0.1575   -2.1505 H   0  0  0  0  0  0  0  0  0  0  0  0
   -0.8959   -1.7380   -1.8653 H   0  0  0  0  0  0  0  0  0  0  0  0
    0.6182   -1.9089   -0.9531 H   0  0  0  0  0  0  0  0  0  0  0  0
   -2.0249   -2.1060    0.1130 H   0  0  0  0  0  0  0  0  0  0  0  0
   -0.5169   -2.2270    0.9669 H   0  0  0  0  0  0  0  0  0  0  0  0
   -2.1692    1.0473    1.9046 H   0  0  0  0  0  0  0  0  0  0  0  0
   -3.5469    2.4499    0.5072 H   0  0  0  0  0  0  0  0  0  0  0  0
  1  2  1  0
  2  3  1  0
  3  4  2  0
  3  5  1  0
  5  6  1  0
  6  7  1  0
  5  8  1  0
  8  9  1  0
  9 10  2  3
  9 11  1  0
  1 12  1  0
  1 13  1  0
  1 14  1  0
  5 15  1  6
  6 16  1  0
  6 17  1  0
  7 18  1  0
  7 19  1  0
 10 20  1  0
 11 21  1  0
M  END
$$$$

     RDKit          3D

 21 20  0  0  0  0  0  0  0  0999 V2000
    3.1570   -0.6969    0.3160 C   0  0  0  0  0  0  0  0  0  0  0  0
    1.9954    0.0347    0.6539 O   0  0  0  0  0  0  0  0  0  0  0  0
    0.7884   -0.2860    0.0208 C   0  0  0  0  0  0  0  0  0  0  0  0
    0.7903   -1.2058   -0.8160 O   0  0  0  0  0  0  0  0  0  0  0  0
   -0.4577    0.4534    0.3419 C   0  0  1  0  0  0  0  0  0  0  0  0
   -0.2479    1.9161    0.0012 C   0  0  0  0  0  0  0  0  0  0  0  0
   -1.5069    2.6118    0.2864 N   0  0  0  0  0  0  0  0  0  0  0  0
   -1.4994   -0.0819   -0.4397 O   0  0  0  0  0  0  0  0  0  0  0  0
   -1.8169   -1.4204   -0.2995 C   0  0  0  0  0  0  0  0  0  0  0  0
   -1.6149   -1.9896    0.8146 N   0  0  0  0  0  0  0  0  0  0  0  0
   -2.3554   -2.1877   -1.3345 O   0  0  0  0  0  0  0  0  0  0  0  0
    4.0117   -0.3248    0.9174 H   0  0  0  0  0  0  0  0  0  0  0  0
    2.9264   -1.7740    0.5519 H   0  0  0  0  0  0  0  0  0  0  0  0
    3.4277   -0.6041   -0.7552 H   0  0  0  0  0  0  0  0  0  0  0  0
   -0.6497    0.3106    1.4250 H   0  0  0  0  0  0  0  0  0  0  0  0
   -0.0543    2.0336   -1.0639 H   0  0  0  0  0  0  0  0  0  0  0  0
    0.5286    2.3240    0.6670 H   0  0  0  0  0  0  0  0  0  0  0  0
   -2.3093    2.1118   -0.1542 H   0  0  0  0  0  0  0  0  0  0  0  0
   -1.4294    3.5751   -0.0611 H   0  0  0  0  0  0  0  0  0  0  0  0
   -1.2358   -1.6155    1.6841 H   0  0  0  0  0  0  0  0  0  0  0  0
   -2.4480   -3.1844   -1.2200 H   0  0  0  0  0  0  0  0  0  0  0  0
  1  2  1  0
  2  3  1  0
  3  4  2  0
  3  5  1  0
  5  6  1  0
  6  7  1  0
  5  8  1  0
  8  9  1  0
  9 10  2  3
  9 11  1  0
  1 12  1  0
  1 13  1  0
  1 14  1  0
  5 15  1  1
  6 16  1  0
  6 17  1  0
  7 18  1  0
  7 19  1  0
 10 20  1  0
 11 21  1  0
M  END
$$$$

     RDKit          3D

 21 20  0  0  0  0  0  0  0  0999 V2000
   -2.9275    0.5514   -0.1644 C   0  0  0  0  0  0  0  0  0  0  0  0
   -1.7462   -0.1155    0.2051 O   0  0  0  0  0  0  0  0  0  0  0  0
   -0.5060    0.3097   -0.2447 C   0  0  0  0  0  0  0  0  0  0  0  0
   -0.4203    1.2988   -0.9903 O   0  0  0  0  0  0  0  0  0  0  0  0
    0.7311   -0.4244    0.1689 C   0  0  1  0  0  0  0  0  0  0  0  0
    0.6092   -1.8563   -0.3503 C   0  0  0  0  0  0  0  0  0  0  0  0
   -0.5728   -2.4488    0.2793 N   0  0  0  0  0  0  0  0  0  0  0  0
    1.8580    0.1908   -0.4101 O   0  0  0  0  0  0  0  0  0  0  0  0
    2.1298    1.5178   -0.1159 C   0  0  0  0  0  0  0  0  0  0  0  0
    1.5624    2.1546    0.8480 N   0  0  0  0  0  0  0  0  0  0  0  0
    3.0546    2.2087   -0.8864 O   0  0  0  0  0  0  0  0  0  0  0  0
   -3.2114    1.2518    0.6536 H   0  0  0  0  0  0  0  0  0  0  0  0
   -3.7741   -0.1874   -0.2336 H   0  0  0  0  0  0  0  0  0  0  0  0
   -2.7821    1.1179   -1.0937 H   0  0  0  0  0  0  0  0  0  0  0  0
    0.7888   -0.4462    1.2720 H   0  0  0  0  0  0  0  0  0  0  0  0
    0.5167   -1.8549   -1.4475 H   0  0  0  0  0  0  0  0  0  0  0  0
    1.5086   -2.4006   -0.0173 H   0  0  0  0  0  0  0  0  0  0  0  0
   -0.6362   -2.1578    1.2763 H   0  0  0  0  0  0  0  0  0  0  0  0
   -0.5684   -3.4746    0.2186 H   0  0  0  0  0  0  0  0  0  0  0  0
    0.8654    1.7488    1.4819 H   0  0  0  0  0  0  0  0  0  0  0  0
    3.5203    3.0163   -0.4495 H   0  0  0  0  0  0  0  0  0  0  0  0
  1  2  1  0
  2  3  1  0
  3  4  2  0
  3  5  1  0
  5  6  1  0
  6  7  1  0
  5  8  1  0
  8  9  1  0
  9 10  2  3
  9 11  1  0
  1 12  1  0
  1 13  1  0
  1 14  1  0
  5 15  1  1
  6 16  1  0
  6 17  1  0
  7 18  1  0
  7 19  1  0
 10 20  1  0
 11 21  1  0
M  END
$$$$

     RDKit          3D

 21 20  0  0  0  0  0  0  0  0999 V2000
    2.6237    0.6849    1.0236 C   0  0  0  0  0  0  0  0  0  0  0  0
    1.2830    0.4515    0.6223 O   0  0  0  0  0  0  0  0  0  0  0  0
    0.9566   -0.1183   -0.5947 C   0  0  0  0  0  0  0  0  0  0  0  0
    1.8919   -0.4359   -1.3628 O   0  0  0  0  0  0  0  0  0  0  0  0
   -0.4440   -0.3367   -0.9585 C   0  0  1  0  0  0  0  0  0  0  0  0
   -0.7728   -1.7869   -1.2472 C   0  0  0  0  0  0  0  0  0  0  0  0
   -0.6182   -2.6169   -0.0761 N   0  0  0  0  0  0  0  0  0  0  0  0
   -1.3382    0.0929    0.0509 O   0  0  0  0  0  0  0  0  0  0  0  0
   -1.4130    1.3935    0.5089 C   0  0  0  0  0  0  0  0  0  0  0  0
   -0.9766    2.3236   -0.2570 N   0  0  0  0  0  0  0  0  0  0  0  0
   -1.9479    1.6425    1.7587 O   0  0  0  0  0  0  0  0  0  0  0  0
    3.1716   -0.2765    0.9173 H   0  0  0  0  0  0  0  0  0  0  0  0
    2.5980    1.0113    2.0732 H   0  0  0  0  0  0  0  0  0  0  0  0
    3.1205    1.4563    0.3806 H   0  0  0  0  0  0  0  0  0  0  0  0
   -0.6800    0.2211   -1.9055 H   0  0  0  0  0  0  0  0  0  0  0  0
   -0.1676   -2.2121   -2.0627 H   0  0  0  0  0  0  0  0  0  0  0  0
   -1.8530   -1.8170   -1.5261 H   0  0  0  0  0  0  0  0  0  0  0  0
   -1.2651   -3.4458   -0.2142 H   0  0  0  0  0  0  0  0  0  0  0  0
   -1.0243   -2.1295    0.7784 H   0  0  0  0  0  0  0  0  0  0  0  0
   -1.0044    3.3111    0.0262 H   0  0  0  0  0  0  0  0  0  0  0  0
   -2.1401    2.5868    2.0647 H   0  0  0  0  0  0  0  0  0  0  0  0
  1  2  1  0
  2  3  1  0
  3  4  2  0
  3  5  1  0
  5  6  1  0
  6  7  1  0
  5  8  1  0
  8  9  1  0
  9 10  2  3
  9 11  1  0
  1 12  1  0
  1 13  1  0
  1 14  1  0
  5 15  1  6
  6 16  1  0
  6 17  1  0
  7 18  1  0
  7 19  1  0
 10 20  1  0
 11 21  1  0
M  END
$$$$

     RDKit          3D

 21 20  0  0  0  0  0  0  0  0999 V2000
    2.9933    0.1526    0.5575 C   0  0  0  0  0  0  0  0  0  0  0  0
    1.7772    0.3300   -0.1350 O   0  0  0  0  0  0  0  0  0  0  0  0
    0.9459   -0.7578   -0.3239 C   0  0  0  0  0  0  0  0  0  0  0  0
    1.3319   -1.8592    0.1418 O   0  0  0  0  0  0  0  0  0  0  0  0
   -0.3493   -0.7375   -1.0223 C   0  0  1  0  0  0  0  0  0  0  0  0
   -1.3783   -1.4792   -0.2174 C   0  0  0  0  0  0  0  0  0  0  0  0
   -1.8469   -0.8153    0.9486 N   0  0  0  0  0  0  0  0  0  0  0  0
   -0.7509    0.4938   -1.5151 O   0  0  0  0  0  0  0  0  0  0  0  0
   -0.9462    1.5898   -0.6972 C   0  0  0  0  0  0  0  0  0  0  0  0
   -0.5240    1.5081    0.5112 N   0  0  0  0  0  0  0  0  0  0  0  0
   -1.5690    2.7387   -1.1419 O   0  0  0  0  0  0  0  0  0  0  0  0
    3.7817   -0.2845   -0.0973 H   0  0  0  0  0  0  0  0  0  0  0  0
    2.8894   -0.4932    1.4538 H   0  0  0  0  0  0  0  0  0  0  0  0
    3.3279    1.1439    0.9147 H   0  0  0  0  0  0  0  0  0  0  0  0
   -0.1928   -1.3894   -1.9395 H   0  0  0  0  0  0  0  0  0  0  0  0
   -0.9169   -2.4418    0.0923 H   0  0  0  0  0  0  0  0  0  0  0  0
   -2.2631   -1.7664   -0.8512 H   0  0  0  0  0  0  0  0  0  0  0  0
   -1.3666   -1.1060    1.8313 H   0  0  0  0  0  0  0  0  0  0  0  0
   -2.8808   -0.8038    1.0474 H   0  0  0  0  0  0  0  0  0  0  0  0
   -0.6648    2.3261    1.1373 H   0  0  0  0  0  0  0  0  0  0  0  0
   -1.3975    3.6509   -0.6954 H   0  0  0  0  0  0  0  0  0  0  0  0
  1  2  1  0
  2  3  1  0
  3  4  2  0
  3  5  1  0
  5  6  1  0
  6  7  1  0
  5  8  1  0
  8  9  1  0
  9 10  2  3
  9 11  1  0
  1 12  1  0
  1 13  1  0
  1 14  1  0
  5 15  1  6
  6 16  1  0
  6 17  1  0
  7 18  1  0
  7 19  1  0
 10 20  1  0
 11 21  1  0
M  END
$$$$

     RDKit          3D

 21 20  0  0  0  0  0  0  0  0999 V2000
    3.3285    0.2361   -0.1113 C   0  0  0  0  0  0  0  0  0  0  0  0
    1.9243    0.4262   -0.1794 O   0  0  0  0  0  0  0  0  0  0  0  0
    1.0520   -0.5565   -0.6040 C   0  0  0  0  0  0  0  0  0  0  0  0
    1.5403   -1.6671   -0.9432 O   0  0  0  0  0  0  0  0  0  0  0  0
   -0.3967   -0.2676   -0.6420 C   0  0  1  0  0  0  0  0  0  0  0  0
   -1.0535   -1.2660    0.3155 C   0  0  0  0  0  0  0  0  0  0  0  0
   -0.4621   -1.0800    1.6015 N   0  0  0  0  0  0  0  0  0  0  0  0
   -0.6065    1.0374   -0.2087 O   0  0  0  0  0  0  0  0  0  0  0  0
   -1.8769    1.5591   -0.1459 C   0  0  0  0  0  0  0  0  0  0  0  0
   -2.7035    1.2733   -1.0787 N   0  0  0  0  0  0  0  0  0  0  0  0
   -2.3118    2.3970    0.9016 O   0  0  0  0  0  0  0  0  0  0  0  0
    3.6185   -0.7997   -0.3537 H   0  0  0  0  0  0  0  0  0  0  0  0
    3.8252    0.9663   -0.7679 H   0  0  0  0  0  0  0  0  0  0  0  0
    3.6361    0.4449    0.9347 H   0  0  0  0  0  0  0  0  0  0  0  0
   -0.7954   -0.4918   -1.6595 H   0  0  0  0  0  0  0  0  0  0  0  0
   -0.9783   -2.2920   -0.0856 H   0  0  0  0  0  0  0  0  0  0  0  0
   -2.1415   -1.0240    0.3373 H   0  0  0  0  0  0  0  0  0  0  0  0
   -0.8192   -1.7069    2.3380 H   0  0  0  0  0  0  0  0  0  0  0  0
    0.5762   -1.0496    1.5350 H   0  0  0  0  0  0  0  0  0  0  0  0
   -2.4315    0.6691   -1.8593 H   0  0  0  0  0  0  0  0  0  0  0  0
   -2.9241    3.1916    0.6755 H   0  0  0  0  0  0  0  0  0  0  0  0
  1  2  1  0
  2  3  1  0
  3  4  2  0
  3  5  1  0
  5  6  1  0
  6  7  1  0
  5  8  1  0
  8  9  1  0
  9 10  2  3
  9 11  1  0
  1 12  1  0
  1 13  1  0
  1 14  1  0
  5 15  1  6
  6 16  1  0
  6 17  1  0
  7 18  1  0
  7 19  1  0
 10 20  1  0
 11 21  1  0
M  END
$$$$
