
     RDKit          3D

 24 24  0  0  0  0  0  0  0  0999 V2000
    2.6376   -1.2666    0.2907 N   0  0  0  0  0  0  0  0  0  0  0  0
    2.2867   -0.0841   -0.0302 C   0  0  0  0  0  0  0  0  0  0  0  0
    3.1580    0.9991    0.2480 N   0  0  0  0  0  0  0  0  0  0  0  0
    4.4292    0.8440    0.6846 O   0  0  0  0  0  0  0  0  0  0  0  0
    1.0316    0.1378   -0.6609 N   0  0  0  0  0  0  0  0  0  0  0  0
    0.0243   -0.8941   -0.5085 C   0  0  0  0  0  0  0  0  0  0  0  0
   -1.2605   -0.5153   -1.2336 C   0  0  0  0  0  0  0  0  0  0  0  0
   -1.9933   -0.8309    0.0749 C   0  0  0  0  0  0  0  0  0  0  0  0
   -2.9667    0.2314    0.3587 C   0  0  0  0  0  0  0  0  0  0  0  0
   -2.5389    1.5718    0.5276 N   0  0  0  0  0  0  0  0  0  0  0  0
   -4.1827   -0.1003    0.4437 O   0  0  0  0  0  0  0  0  0  0  0  0
   -0.6827   -0.7328    0.8128 C   0  0  0  0  0  0  0  0  0  0  0  0
    2.1157   -2.1377    0.1528 H   0  0  0  0  0  0  0  0  0  0  0  0
    2.7921    1.9856    0.1057 H   0  0  0  0  0  0  0  0  0  0  0  0
    5.0593    1.4288    0.1931 H   0  0  0  0  0  0  0  0  0  0  0  0
    0.8474    1.0248   -1.2185 H   0  0  0  0  0  0  0  0  0  0  0  0
    0.3237   -1.9070   -0.7887 H   0  0  0  0  0  0  0  0  0  0  0  0
   -1.2964    0.5444   -1.5173 H   0  0  0  0  0  0  0  0  0  0  0  0
   -1.5539   -1.2310   -2.0261 H   0  0  0  0  0  0  0  0  0  0  0  0
   -2.3906   -1.8505    0.0812 H   0  0  0  0  0  0  0  0  0  0  0  0
   -2.4834    2.1912   -0.3105 H   0  0  0  0  0  0  0  0  0  0  0  0
   -2.2899    1.9144    1.4700 H   0  0  0  0  0  0  0  0  0  0  0  0
   -0.5654   -1.5572    1.5243 H   0  0  0  0  0  0  0  0  0  0  0  0
   -0.5011    0.2342    1.3261 H   0  0  0  0  0  0  0  0  0  0  0  0
  1  2  2  3
  2  3  1  0
  3  4  1  0
  2  5  1  0
  5  6  1  0
  6  7  1  0
  7  8  1  0
  8  9  1  0
  9 10  1  0
  9 11  2  0
  8 12  1  0
 12  6  1  0
  1 13  1  0
  3 14  1  0
  4 15  1  0
  5 16  1  0
  6 17  1  0
  7 18  1  0
  7 19  1  0
  8 20  1  0
 10 21  1  0
 10 22  1  0
 12 23  1  0
 12 24  1  0
M  END
$$$$

     RDKit          3D

 24 24  0  0  0  0  0  0  0  0999 V2000
   -2.6759   -0.8721    0.4897 N   0  0  0  0  0  0  0  0  0  0  0  0
   -2.3718    0.2060   -0.1456 C   0  0  0  0  0  0  0  0  0  0  0  0
   -3.2459    1.3197   -0.0402 N   0  0  0  0  0  0  0  0  0  0  0  0
   -4.4992    1.1018    0.4214 O   0  0  0  0  0  0  0  0  0  0  0  0
   -1.2027    0.2751   -0.9233 N   0  0  0  0  0  0  0  0  0  0  0  0
   -0.1426   -0.6614   -0.7423 C   0  0  0  0  0  0  0  0  0  0  0  0
    0.4766   -0.6737    0.6633 C   0  0  0  0  0  0  0  0  0  0  0  0
    1.7956   -0.9546   -0.0257 C   0  0  0  0  0  0  0  0  0  0  0  0
    2.9816   -0.3405    0.5979 C   0  0  0  0  0  0  0  0  0  0  0  0
    3.0971    1.0505    0.7418 N   0  0  0  0  0  0  0  0  0  0  0  0
    3.8981   -1.1066    1.0023 O   0  0  0  0  0  0  0  0  0  0  0  0
    1.2347   -0.1820   -1.2228 C   0  0  0  0  0  0  0  0  0  0  0  0
   -2.1207   -1.7418    0.4891 H   0  0  0  0  0  0  0  0  0  0  0  0
   -2.9001    2.2697   -0.3198 H   0  0  0  0  0  0  0  0  0  0  0  0
   -4.4993    0.5859    1.2775 H   0  0  0  0  0  0  0  0  0  0  0  0
   -1.1420    1.0487   -1.6466 H   0  0  0  0  0  0  0  0  0  0  0  0
   -0.2999   -1.6845   -1.0988 H   0  0  0  0  0  0  0  0  0  0  0  0
    0.3967    0.3509    1.0857 H   0  0  0  0  0  0  0  0  0  0  0  0
    0.1406   -1.4897    1.3047 H   0  0  0  0  0  0  0  0  0  0  0  0
    1.8752   -2.0300   -0.2558 H   0  0  0  0  0  0  0  0  0  0  0  0
    2.3000    1.6942    0.5826 H   0  0  0  0  0  0  0  0  0  0  0  0
    4.0042    1.5045    1.0196 H   0  0  0  0  0  0  0  0  0  0  0  0
    1.3741    0.9047   -1.0547 H   0  0  0  0  0  0  0  0  0  0  0  0
    1.5257   -0.5748   -2.2001 H   0  0  0  0  0  0  0  0  0  0  0  0
  1  2  2  3
  2  3  1  0
  3  4  1  0
  2  5  1  0
  5  6  1  0
  6  7  1  0
  7  8  1  0
  8  9  1  0
  9 10  1  0
  9 11  2  0
  8 12  1  0
 12  6  1  0
  1 13  1  0
  3 14  1  0
  4 15  1  0
  5 16  1  0
  6 17  1  0
  7 18  1  0
  7 19  1  0
  8 20  1  0
 10 21  1  0
 10 22  1  0
 12 23  1  0
 12 24  1  0
M  END
$$$$

     RDKit          3D

 24 24  0  0  0  0  0  0  0  0999 V2000
   -2.4567   -0.3051   -1.5035 N   0  0  0  0  0  0  0  0  0  0  0  0
   -2.3751    0.0713   -0.2641 C   0  0  0  0  0  0  0  0  0  0  0  0
   -3.4973    0.7748    0.2684 N   0  0  0  0  0  0  0  0  0  0  0  0
   -4.3312    1.4323   -0.5754 O   0  0  0  0  0  0  0  0  0  0  0  0
   -1.2195   -0.2066    0.5227 N   0  0  0  0  0  0  0  0  0  0  0  0
   -0.1006   -0.9400   -0.0390 C   0  0  0  0  0  0  0  0  0  0  0  0
    0.9998   -1.0971    1.0173 C   0  0  0  0  0  0  0  0  0  0  0  0
    2.0117   -0.7916   -0.0553 C   0  0  0  0  0  0  0  0  0  0  0  0
    3.0741    0.1669    0.3407 C   0  0  0  0  0  0  0  0  0  0  0  0
    2.7433    1.4836    0.7516 N   0  0  0  0  0  0  0  0  0  0  0  0
    4.3003   -0.1636    0.3224 O   0  0  0  0  0  0  0  0  0  0  0  0
    0.8841   -0.0860   -0.8188 C   0  0  0  0  0  0  0  0  0  0  0  0
   -1.7115   -0.8200   -1.9997 H   0  0  0  0  0  0  0  0  0  0  0  0
   -3.6503    0.7646    1.3167 H   0  0  0  0  0  0  0  0  0  0  0  0
   -4.4512    0.9340   -1.4180 H   0  0  0  0  0  0  0  0  0  0  0  0
   -1.2325    0.1448    1.5065 H   0  0  0  0  0  0  0  0  0  0  0  0
   -0.3487   -1.8595   -0.5821 H   0  0  0  0  0  0  0  0  0  0  0  0
    0.9905   -2.1203    1.4097 H   0  0  0  0  0  0  0  0  0  0  0  0
    0.9507   -0.2832    1.7471 H   0  0  0  0  0  0  0  0  0  0  0  0
    2.3513   -1.6941   -0.5579 H   0  0  0  0  0  0  0  0  0  0  0  0
    3.0000    2.2772    0.1449 H   0  0  0  0  0  0  0  0  0  0  0  0
    2.2539    1.6311    1.6449 H   0  0  0  0  0  0  0  0  0  0  0  0
    0.9717   -0.3041   -1.8816 H   0  0  0  0  0  0  0  0  0  0  0  0
    0.8430    0.9904   -0.6015 H   0  0  0  0  0  0  0  0  0  0  0  0
  1  2  2  3
  2  3  1  0
  3  4  1  0
  2  5  1  0
  5  6  1  0
  6  7  1  0
  7  8  1  0
  8  9  1  0
  9 10  1  0
  9 11  2  0
  8 12  1  0
 12  6  1  0
  1 13  1  0
  3 14  1  0
  4 15  1  0
  5 16  1  0
  6 17  1  0
  7 18  1  0
  7 19  1  0
  8 20  1  0
 10 21  1  0
 10 22  1  0
 12 23  1  0
 12 24  1  0
M  END
$$$$

     RDKit          3D

 24 24  0  0  0  0  0  0  0  0999 V2000
   -2.7251   -0.8197   -1.2884 N   0  0  0  0  0  0  0  0  0  0  0  0
   -2.4168   -0.6904   -0.0431 C   0  0  0  0  0  0  0  0  0  0  0  0
   -3.4396   -0.3869    0.9207 N   0  0  0  0  0  0  0  0  0  0  0  0
   -4.7153   -0.1235    0.5600 O   0  0  0  0  0  0  0  0  0  0  0  0
   -1.0605   -0.8559    0.3276 N   0  0  0  0  0  0  0  0  0  0  0  0
   -0.0045   -0.6949   -0.6596 C   0  0  0  0  0  0  0  0  0  0  0  0
    1.3831   -0.8926   -0.1556 C   0  0  0  0  0  0  0  0  0  0  0  0
    1.5958    0.6098    0.0235 C   0  0  0  0  0  0  0  0  0  0  0  0
    2.8029    1.1391   -0.6195 C   0  0  0  0  0  0  0  0  0  0  0  0
    4.0795    0.6568   -0.2538 N   0  0  0  0  0  0  0  0  0  0  0  0
    2.7200    2.0225   -1.4984 O   0  0  0  0  0  0  0  0  0  0  0  0
    0.3122    0.8020   -0.7834 C   0  0  0  0  0  0  0  0  0  0  0  0
   -3.7140   -0.7045   -1.5971 H   0  0  0  0  0  0  0  0  0  0  0  0
   -3.2033   -0.3660    1.9340 H   0  0  0  0  0  0  0  0  0  0  0  0
   -4.8443    0.8551    0.3852 H   0  0  0  0  0  0  0  0  0  0  0  0
   -0.8455   -1.0934    1.3166 H   0  0  0  0  0  0  0  0  0  0  0  0
   -0.2347   -1.1423   -1.6455 H   0  0  0  0  0  0  0  0  0  0  0  0
    1.5051   -1.4809    0.7746 H   0  0  0  0  0  0  0  0  0  0  0  0
    2.0488   -1.2334   -0.9834 H   0  0  0  0  0  0  0  0  0  0  0  0
    1.4667    0.8529    1.0987 H   0  0  0  0  0  0  0  0  0  0  0  0
    4.3735    0.7848    0.7387 H   0  0  0  0  0  0  0  0  0  0  0  0
    4.7524    0.1838   -0.8919 H   0  0  0  0  0  0  0  0  0  0  0  0
   -0.4023    1.4659   -0.2966 H   0  0  0  0  0  0  0  0  0  0  0  0
    0.5659    1.1116   -1.8033 H   0  0  0  0  0  0  0  0  0  0  0  0
  1  2  2  3
  2  3  1  0
  3  4  1  0
  2  5  1  0
  5  6  1  0
  6  7  1  0
  7  8  1  0
  8  9  1  0
  9 10  1  0
  9 11  2  0
  8 12  1  0
 12  6  1  0
  1 13  1  0
  3 14  1  0
  4 15  1  0
  5 16  1  0
  6 17  1  0
  7 18  1  0
  7 19  1  0
  8 20  1  0
 10 21  1  0
 10 22  1  0
 12 23  1  0
 12 24  1  0
M  END
$$$$

     RDKit          3D

 24 24  0  0  0  0  0  0  0  0999 V2000
    2.0575   -1.7134    0.0362 N   0  0  0  0  0  0  0  0  0  0  0  0
    2.3729   -0.5154   -0.3049 C   0  0  0  0  0  0  0  0  0  0  0  0
    3.7068   -0.0752   -0.2567 N   0  0  0  0  0  0  0  0  0  0  0  0
    4.6606   -0.7573    0.4210 O   0  0  0  0  0  0  0  0  0  0  0  0
    1.3379    0.3517   -0.7317 N   0  0  0  0  0  0  0  0  0  0  0  0
    0.0247   -0.1099   -1.1194 C   0  0  0  0  0  0  0  0  0  0  0  0
   -0.7052   -0.8527    0.0019 C   0  0  0  0  0  0  0  0  0  0  0  0
   -1.9621   -0.1453   -0.4626 C   0  0  0  0  0  0  0  0  0  0  0  0
   -2.8261    0.3327    0.6204 C   0  0  0  0  0  0  0  0  0  0  0  0
   -4.0281    1.0085    0.2949 N   0  0  0  0  0  0  0  0  0  0  0  0
   -2.5181    0.1530    1.8227 O   0  0  0  0  0  0  0  0  0  0  0  0
   -1.0618    0.9426   -1.0125 C   0  0  0  0  0  0  0  0  0  0  0  0
    2.8029   -2.3488    0.3472 H   0  0  0  0  0  0  0  0  0  0  0  0
    3.9651    0.8165   -0.7677 H   0  0  0  0  0  0  0  0  0  0  0  0
    5.5544   -0.4058    0.1869 H   0  0  0  0  0  0  0  0  0  0  0  0
    1.5210    1.3711   -0.7719 H   0  0  0  0  0  0  0  0  0  0  0  0
   -0.0410   -0.5984   -2.1034 H   0  0  0  0  0  0  0  0  0  0  0  0
   -0.7384   -1.9444   -0.1241 H   0  0  0  0  0  0  0  0  0  0  0  0
   -0.3935   -0.4695    0.9774 H   0  0  0  0  0  0  0  0  0  0  0  0
   -2.5089   -0.6978   -1.2564 H   0  0  0  0  0  0  0  0  0  0  0  0
   -4.0254    1.8740   -0.3146 H   0  0  0  0  0  0  0  0  0  0  0  0
   -4.9683    0.7037    0.6269 H   0  0  0  0  0  0  0  0  0  0  0  0
   -0.8470    1.7342   -0.2498 H   0  0  0  0  0  0  0  0  0  0  0  0
   -1.3800    1.3459   -2.0026 H   0  0  0  0  0  0  0  0  0  0  0  0
  1  2  2  3
  2  3  1  0
  3  4  1  0
  2  5  1  0
  5  6  1  0
  6  7  1  0
  7  8  1  0
  8  9  1  0
  9 10  1  0
  9 11  2  0
  8 12  1  0
 12  6  1  0
  1 13  1  0
  3 14  1  0
  4 15  1  0
  5 16  1  0
  6 17  1  0
  7 18  1  0
  7 19  1  0
  8 20  1  0
 10 21  1  0
 10 22  1  0
 12 23  1  0
 12 24  1  0
M  END
$$$$

     RDKit          3D

 24 24  0  0  0  0  0  0  0  0999 V2000
   -2.7083    0.2546   -1.2843 N   0  0  0  0  0  0  0  0  0  0  0  0
   -2.5193    0.1016   -0.0362 C   0  0  0  0  0  0  0  0  0  0  0  0
   -3.4471    0.7030    0.8603 N   0  0  0  0  0  0  0  0  0  0  0  0
   -4.5022    1.4133    0.4159 O   0  0  0  0  0  0  0  0  0  0  0  0
   -1.4153   -0.6466    0.4351 N   0  0  0  0  0  0  0  0  0  0  0  0
   -0.2708   -0.8199   -0.4231 C   0  0  0  0  0  0  0  0  0  0  0  0
    0.3971    0.4942   -0.8373 C   0  0  0  0  0  0  0  0  0  0  0  0
    1.7153   -0.2047   -0.6882 C   0  0  0  0  0  0  0  0  0  0  0  0
    2.8105    0.5689   -0.1168 C   0  0  0  0  0  0  0  0  0  0  0  0
    4.0909   -0.0024    0.0636 N   0  0  0  0  0  0  0  0  0  0  0  0
    2.6276    1.7564    0.2229 O   0  0  0  0  0  0  0  0  0  0  0  0
    1.0262   -1.1553    0.2995 C   0  0  0  0  0  0  0  0  0  0  0  0
   -2.0633   -0.1624   -1.9593 H   0  0  0  0  0  0  0  0  0  0  0  0
   -3.2874    0.5784    1.8682 H   0  0  0  0  0  0  0  0  0  0  0  0
   -4.4008    1.6866   -0.5341 H   0  0  0  0  0  0  0  0  0  0  0  0
   -1.4293   -1.0662    1.3882 H   0  0  0  0  0  0  0  0  0  0  0  0
   -0.4976   -1.5007   -1.2568 H   0  0  0  0  0  0  0  0  0  0  0  0
    0.1794    1.2716   -0.0674 H   0  0  0  0  0  0  0  0  0  0  0  0
    0.1250    0.8537   -1.8322 H   0  0  0  0  0  0  0  0  0  0  0  0
    1.9439   -0.7885   -1.6065 H   0  0  0  0  0  0  0  0  0  0  0  0
    4.8217    0.4461    0.6726 H   0  0  0  0  0  0  0  0  0  0  0  0
    4.3655   -0.8957   -0.4013 H   0  0  0  0  0  0  0  0  0  0  0  0
    1.3576   -2.1959    0.2193 H   0  0  0  0  0  0  0  0  0  0  0  0
    1.0809   -0.6902    1.3064 H   0  0  0  0  0  0  0  0  0  0  0  0
  1  2  2  3
  2  3  1  0
  3  4  1  0
  2  5  1  0
  5  6  1  0
  6  7  1  0
  7  8  1  0
  8  9  1  0
  9 10  1  0
  9 11  2  0
  8 12  1  0
 12  6  1  0
  1 13  1  0
  3 14  1  0
  4 15  1  0
  5 16  1  0
  6 17  1  0
  7 18  1  0
  7 19  1  0
  8 20  1  0
 10 21  1  0
 10 22  1  0
 12 23  1  0
 12 24  1  0
M  END
$$$$

     RDKit          3D

 24 24  0  0  0  0  0  0  0  0999 V2000
    2.5365   -0.0937    1.7451 N   0  0  0  0  0  0  0  0  0  0  0  0
    2.4544   -0.1248    0.4550 C   0  0  0  0  0  0  0  0  0  0  0  0
    3.6405    0.1996   -0.2864 N   0  0  0  0  0  0  0  0  0  0  0  0
    4.6289    0.9280    0.2710 O   0  0  0  0  0  0  0  0  0  0  0  0
    1.2770   -0.4562   -0.2418 N   0  0  0  0  0  0  0  0  0  0  0  0
    0.1058   -0.8254    0.4696 C   0  0  0  0  0  0  0  0  0  0  0  0
   -1.0999   -1.1608   -0.3868 C   0  0  0  0  0  0  0  0  0  0  0  0
   -1.9409   -0.5602    0.7223 C   0  0  0  0  0  0  0  0  0  0  0  0
   -3.1504    0.1609    0.2846 C   0  0  0  0  0  0  0  0  0  0  0  0
   -3.1488    1.2851   -0.5603 N   0  0  0  0  0  0  0  0  0  0  0  0
   -4.2573   -0.2601    0.6963 O   0  0  0  0  0  0  0  0  0  0  0  0
   -0.7335    0.3456    1.0007 C   0  0  0  0  0  0  0  0  0  0  0  0
    1.7529   -0.3072    2.3726 H   0  0  0  0  0  0  0  0  0  0  0  0
    3.7710   -0.1148   -1.2665 H   0  0  0  0  0  0  0  0  0  0  0  0
    4.6010    1.8605   -0.0996 H   0  0  0  0  0  0  0  0  0  0  0  0
    1.2687   -0.4295   -1.2771 H   0  0  0  0  0  0  0  0  0  0  0  0
    0.2197   -1.5956    1.2620 H   0  0  0  0  0  0  0  0  0  0  0  0
   -1.2471   -2.2306   -0.5718 H   0  0  0  0  0  0  0  0  0  0  0  0
   -1.0612   -0.5305   -1.3077 H   0  0  0  0  0  0  0  0  0  0  0  0
   -2.0619   -1.2592    1.5504 H   0  0  0  0  0  0  0  0  0  0  0  0
   -3.6289    2.1452   -0.2677 H   0  0  0  0  0  0  0  0  0  0  0  0
   -2.6663    1.2381   -1.4665 H   0  0  0  0  0  0  0  0  0  0  0  0
   -0.5845    0.5662    2.0618 H   0  0  0  0  0  0  0  0  0  0  0  0
   -0.6754    1.2193    0.3018 H   0  0  0  0  0  0  0  0  0  0  0  0
  1  2  2  3
  2  3  1  0
  3  4  1  0
  2  5  1  0
  5  6  1  0
  6  7  1  0
  7  8  1  0
  8  9  1  0
  9 10  1  0
  9 11  2  0
  8 12  1  0
 12  6  1  0
  1 13  1  0
  3 14  1  0
  4 15  1  0
  5 16  1  0
  6 17  1  0
  7 18  1  0
  7 19  1  0
  8 20  1  0
 10 21  1  0
 10 22  1  0
 12 23  1  0
 12 24  1  0
M  END
$$$$

     RDKit          3D

 24 24  0  0  0  0  0  0  0  0999 V2000
    2.4349    1.1786    0.8387 N   0  0  0  0  0  0  0  0  0  0  0  0
    2.5148    0.0844    0.1473 C   0  0  0  0  0  0  0  0  0  0  0  0
    3.7559   -0.2806   -0.4262 N   0  0  0  0  0  0  0  0  0  0  0  0
    4.9155    0.2153    0.0488 O   0  0  0  0  0  0  0  0  0  0  0  0
    1.3998   -0.7734   -0.0624 N   0  0  0  0  0  0  0  0  0  0  0  0
    0.1677   -0.4241    0.6038 C   0  0  0  0  0  0  0  0  0  0  0  0
   -0.9823   -1.3745    0.3424 C   0  0  0  0  0  0  0  0  0  0  0  0
   -1.8780   -0.1763    0.3428 C   0  0  0  0  0  0  0  0  0  0  0  0
   -2.9289   -0.1250   -0.6555 C   0  0  0  0  0  0  0  0  0  0  0  0
   -3.8085    0.9781   -0.7089 N   0  0  0  0  0  0  0  0  0  0  0  0
   -3.0706   -1.0517   -1.4786 O   0  0  0  0  0  0  0  0  0  0  0  0
   -0.6611    0.6354   -0.1277 C   0  0  0  0  0  0  0  0  0  0  0  0
    1.5538    1.5004    1.2841 H   0  0  0  0  0  0  0  0  0  0  0  0
    3.7900   -0.9411   -1.2276 H   0  0  0  0  0  0  0  0  0  0  0  0
    4.7722    1.0996    0.4731 H   0  0  0  0  0  0  0  0  0  0  0  0
    1.4083   -1.6183   -0.6500 H   0  0  0  0  0  0  0  0  0  0  0  0
    0.2325   -0.1562    1.6568 H   0  0  0  0  0  0  0  0  0  0  0  0
   -0.8431   -1.8566   -0.6448 H   0  0  0  0  0  0  0  0  0  0  0  0
   -1.1192   -2.1054    1.1562 H   0  0  0  0  0  0  0  0  0  0  0  0
   -2.1325    0.1424    1.3711 H   0  0  0  0  0  0  0  0  0  0  0  0
   -4.8599    0.8760   -0.7258 H   0  0  0  0  0  0  0  0  0  0  0  0
   -3.4734    1.9828   -0.7357 H   0  0  0  0  0  0  0  0  0  0  0  0
   -0.6364    1.6319    0.3118 H   0  0  0  0  0  0  0  0  0  0  0  0
   -0.5514    0.5585   -1.2233 H   0  0  0  0  0  0  0  0  0  0  0  0
  1  2  2  3
  2  3  1  0
  3  4  1  0
  2  5  1  0
  5  6  1  0
  6  7  1  0
  7  8  1  0
  8  9  1  0
  9 10  1  0
  9 11  2  0
  8 12  1  0
 12  6  1  0
  1 13  1  0
  3 14  1  0
  4 15  1  0
  5 16  1  0
  6 17  1  0
  7 18  1  0
  7 19  1  0
  8 20  1  0
 10 21  1  0
 10 22  1  0
 12 23  1  0
 12 24  1  0
M  END
$$$$
