
     RDKit          3D

 30 30  0  0  0  0  0  0  0  0999 V2000
   -4.6925    0.2037   -0.5542 N   0  0  0  0  0  0  0  0  0  0  0  0
   -3.4954   -0.4199   -1.0248 C   0  0  0  0  0  0  0  0  0  0  0  0
   -3.2915   -0.5641   -2.2300 O   0  0  0  0  0  0  0  0  0  0  0  0
   -2.4789   -0.9043   -0.0408 C   0  0  2  0  0  0  0  0  0  0  0  0
   -3.0387   -0.8526    1.2619 N   0  0  0  0  0  0  0  0  0  0  0  0
   -1.2802    0.0651   -0.0386 C   0  0  0  0  0  0  0  0  0  0  0  0
   -0.3034   -0.3745    0.9057 N   0  0  0  0  0  0  0  0  0  0  0  0
    0.8141    0.4930    1.0389 C   0  0  0  0  0  0  0  0  0  0  0  0
    1.6845    0.4687   -0.1950 C   0  0  1  0  0  0  0  0  0  0  0  0
    2.8702    1.4099   -0.0751 C   0  0  0  0  0  0  0  0  0  0  0  0
    3.8388    0.2580   -0.1018 C   0  0  1  0  0  0  0  0  0  0  0  0
    4.5370    0.0590    1.0901 O   0  0  0  0  0  0  0  0  0  0  0  0
    2.6682   -0.6944   -0.2144 C   0  0  0  0  0  0  0  0  0  0  0  0
   -4.9048    0.2151    0.4625 H   0  0  0  0  0  0  0  0  0  0  0  0
   -5.3482    0.6523   -1.2347 H   0  0  0  0  0  0  0  0  0  0  0  0
   -2.1504   -1.9409   -0.2582 H   0  0  0  0  0  0  0  0  0  0  0  0
   -2.7058   -0.1461    1.9190 H   0  0  0  0  0  0  0  0  0  0  0  0
   -3.7909   -1.4858    1.5047 H   0  0  0  0  0  0  0  0  0  0  0  0
   -0.8550   -0.0485   -1.0638 H   0  0  0  0  0  0  0  0  0  0  0  0
   -1.6179    1.1041    0.0775 H   0  0  0  0  0  0  0  0  0  0  0  0
   -0.6623   -0.8258    1.7423 H   0  0  0  0  0  0  0  0  0  0  0  0
    1.4597    0.0508    1.8631 H   0  0  0  0  0  0  0  0  0  0  0  0
    0.5944    1.5196    1.3731 H   0  0  0  0  0  0  0  0  0  0  0  0
    1.1617    0.5672   -1.1618 H   0  0  0  0  0  0  0  0  0  0  0  0
    2.8651    1.9296    0.9180 H   0  0  0  0  0  0  0  0  0  0  0  0
    3.0114    2.0940   -0.9296 H   0  0  0  0  0  0  0  0  0  0  0  0
    4.5015    0.1809   -0.9805 H   0  0  0  0  0  0  0  0  0  0  0  0
    5.4125   -0.3614    0.8408 H   0  0  0  0  0  0  0  0  0  0  0  0
    2.6652   -1.3142   -1.1105 H   0  0  0  0  0  0  0  0  0  0  0  0
    2.5314   -1.3385    0.7066 H   0  0  0  0  0  0  0  0  0  0  0  0
  1  2  1  0
  2  3  2  0
  2  4  1  0
  4  5  1  0
  4  6  1  0
  6  7  1  0
  7  8  1  0
  8  9  1  0
  9 10  1  0
 10 11  1  0
 11 12  1  0
 11 13  1  0
 13  9  1  0
  1 14  1  0
  1 15  1  0
  4 16  1  6
  5 17  1  0
  5 18  1  0
  6 19  1  0
  6 20  1  0
  7 21  1  0
  8 22  1  0
  8 23  1  0
  9 24  1  6
 10 25  1  0
 10 26  1  0
 11 27  1  6
 12 28  1  0
 13 29  1  0
 13 30  1  0
M  END
$$$$

     RDKit          3D

 30 30  0  0  0  0  0  0  0  0999 V2000
   -3.2771   -1.7123   -0.4919 N   0  0  0  0  0  0  0  0  0  0  0  0
   -2.5726   -0.9860    0.5068 C   0  0  0  0  0  0  0  0  0  0  0  0
   -1.9373   -1.6441    1.3668 O   0  0  0  0  0  0  0  0  0  0  0  0
   -2.5908    0.4985    0.5269 C   0  0  2  0  0  0  0  0  0  0  0  0
   -3.3597    1.0288   -0.5859 N   0  0  0  0  0  0  0  0  0  0  0  0
   -1.1876    1.0534    0.4276 C   0  0  0  0  0  0  0  0  0  0  0  0
   -0.6037    0.5944   -0.8204 N   0  0  0  0  0  0  0  0  0  0  0  0
    0.7698    1.1037   -0.9541 C   0  0  0  0  0  0  0  0  0  0  0  0
    1.6816    0.4784    0.0566 C   0  0  1  0  0  0  0  0  0  0  0  0
    1.7517   -1.0349   -0.0830 C   0  0  0  0  0  0  0  0  0  0  0  0
    3.2669   -0.9834   -0.0167 C   0  0  1  0  0  0  0  0  0  0  0  0
    3.9082   -1.7369   -0.9899 O   0  0  0  0  0  0  0  0  0  0  0  0
    3.1380    0.4915   -0.4242 C   0  0  0  0  0  0  0  0  0  0  0  0
   -2.8382   -2.0529   -1.3727 H   0  0  0  0  0  0  0  0  0  0  0  0
   -4.2875   -1.9052   -0.3198 H   0  0  0  0  0  0  0  0  0  0  0  0
   -3.0666    0.7913    1.4908 H   0  0  0  0  0  0  0  0  0  0  0  0
   -2.8920    1.8812   -0.9552 H   0  0  0  0  0  0  0  0  0  0  0  0
   -4.3501    1.2015   -0.3735 H   0  0  0  0  0  0  0  0  0  0  0  0
   -1.2090    2.1557    0.4846 H   0  0  0  0  0  0  0  0  0  0  0  0
   -0.6179    0.6860    1.2932 H   0  0  0  0  0  0  0  0  0  0  0  0
   -1.1282    1.0535   -1.6217 H   0  0  0  0  0  0  0  0  0  0  0  0
    1.0976    0.8508   -1.9785 H   0  0  0  0  0  0  0  0  0  0  0  0
    0.7791    2.1955   -0.7880 H   0  0  0  0  0  0  0  0  0  0  0  0
    1.5471    0.8046    1.0899 H   0  0  0  0  0  0  0  0  0  0  0  0
    1.3625   -1.6104    0.7654 H   0  0  0  0  0  0  0  0  0  0  0  0
    1.4222   -1.4299   -1.0566 H   0  0  0  0  0  0  0  0  0  0  0  0
    3.6762   -1.1313    1.0026 H   0  0  0  0  0  0  0  0  0  0  0  0
    4.4923   -2.4416   -0.5874 H   0  0  0  0  0  0  0  0  0  0  0  0
    3.7891    1.1314    0.1720 H   0  0  0  0  0  0  0  0  0  0  0  0
    3.2361    0.6687   -1.5072 H   0  0  0  0  0  0  0  0  0  0  0  0
  1  2  1  0
  2  3  2  0
  2  4  1  0
  4  5  1  0
  4  6  1  0
  6  7  1  0
  7  8  1  0
  8  9  1  0
  9 10  1  0
 10 11  1  0
 11 12  1  0
 11 13  1  0
 13  9  1  0
  1 14  1  0
  1 15  1  0
  4 16  1  1
  5 17  1  0
  5 18  1  0
  6 19  1  0
  6 20  1  0
  7 21  1  0
  8 22  1  0
  8 23  1  0
  9 24  1  1
 10 25  1  0
 10 26  1  0
 11 27  1  1
 12 28  1  0
 13 29  1  0
 13 30  1  0
M  END
$$$$

     RDKit          3D

 30 30  0  0  0  0  0  0  0  0999 V2000
   -4.2105    1.0204    0.1278 N   0  0  0  0  0  0  0  0  0  0  0  0
   -3.2458    0.4292   -0.7478 C   0  0  0  0  0  0  0  0  0  0  0  0
   -3.0996    0.9570   -1.8799 O   0  0  0  0  0  0  0  0  0  0  0  0
   -2.4442   -0.7664   -0.3311 C   0  0  2  0  0  0  0  0  0  0  0  0
   -2.8215   -1.2252    0.9682 N   0  0  0  0  0  0  0  0  0  0  0  0
   -0.9518   -0.4101   -0.3960 C   0  0  0  0  0  0  0  0  0  0  0  0
   -0.6457    0.6691    0.4593 N   0  0  0  0  0  0  0  0  0  0  0  0
    0.6525    1.1946    0.3607 C   0  0  0  0  0  0  0  0  0  0  0  0
    1.8085    0.3760    0.7991 C   0  0  1  0  0  0  0  0  0  0  0  0
    2.0538   -0.9132    0.0749 C   0  0  0  0  0  0  0  0  0  0  0  0
    3.5611   -0.6081    0.0631 C   0  0  1  0  0  0  0  0  0  0  0  0
    4.1770   -0.8593   -1.1381 O   0  0  0  0  0  0  0  0  0  0  0  0
    3.1698    0.8434    0.3017 C   0  0  0  0  0  0  0  0  0  0  0  0
   -4.7255    1.8912   -0.1502 H   0  0  0  0  0  0  0  0  0  0  0  0
   -4.4098    0.5851    1.0590 H   0  0  0  0  0  0  0  0  0  0  0  0
   -2.6095   -1.5456   -1.0954 H   0  0  0  0  0  0  0  0  0  0  0  0
   -2.3941   -2.1735    1.1712 H   0  0  0  0  0  0  0  0  0  0  0  0
   -3.8547   -1.3715    1.0189 H   0  0  0  0  0  0  0  0  0  0  0  0
   -0.3974   -1.3186   -0.0528 H   0  0  0  0  0  0  0  0  0  0  0  0
   -0.6913   -0.1905   -1.4287 H   0  0  0  0  0  0  0  0  0  0  0  0
   -1.0074    0.6050    1.4363 H   0  0  0  0  0  0  0  0  0  0  0  0
    0.7291    2.2215    0.8608 H   0  0  0  0  0  0  0  0  0  0  0  0
    0.8063    1.4870   -0.7391 H   0  0  0  0  0  0  0  0  0  0  0  0
    1.8089    0.2634    1.9317 H   0  0  0  0  0  0  0  0  0  0  0  0
    1.8297   -1.8445    0.5885 H   0  0  0  0  0  0  0  0  0  0  0  0
    1.6577   -0.9255   -0.9710 H   0  0  0  0  0  0  0  0  0  0  0  0
    4.0617   -1.0610    0.9342 H   0  0  0  0  0  0  0  0  0  0  0  0
    4.3604   -0.0619   -1.6901 H   0  0  0  0  0  0  0  0  0  0  0  0
    3.0649    1.3845   -0.6413 H   0  0  0  0  0  0  0  0  0  0  0  0
    3.7675    1.3473    1.0801 H   0  0  0  0  0  0  0  0  0  0  0  0
  1  2  1  0
  2  3  2  0
  2  4  1  0
  4  5  1  0
  4  6  1  0
  6  7  1  0
  7  8  1  0
  8  9  1  0
  9 10  1  0
 10 11  1  0
 11 12  1  0
 11 13  1  0
 13  9  1  0
  1 14  1  0
  1 15  1  0
  4 16  1  6
  5 17  1  0
  5 18  1  0
  6 19  1  0
  6 20  1  0
  7 21  1  0
  8 22  1  0
  8 23  1  0
  9 24  1  1
 10 25  1  0
 10 26  1  0
 11 27  1  1
 12 28  1  0
 13 29  1  0
 13 30  1  0
M  END
$$$$

     RDKit          3D

 30 30  0  0  0  0  0  0  0  0999 V2000
    3.6063    1.4650   -0.6047 N   0  0  0  0  0  0  0  0  0  0  0  0
    2.2630    1.0259   -0.4050 C   0  0  0  0  0  0  0  0  0  0  0  0
    1.3098    1.6816   -0.9002 O   0  0  0  0  0  0  0  0  0  0  0  0
    1.9923   -0.2159    0.3915 C   0  0  2  0  0  0  0  0  0  0  0  0
    3.2837   -0.6804    0.9083 N   0  0  0  0  0  0  0  0  0  0  0  0
    1.4751   -1.3194   -0.4834 C   0  0  0  0  0  0  0  0  0  0  0  0
    0.2417   -1.0026   -1.1683 N   0  0  0  0  0  0  0  0  0  0  0  0
   -0.8112   -0.9169   -0.2232 C   0  0  0  0  0  0  0  0  0  0  0  0
   -2.1635   -0.5648   -0.7879 C   0  0  1  0  0  0  0  0  0  0  0  0
   -3.1684   -0.5257    0.3567 C   0  0  0  0  0  0  0  0  0  0  0  0
   -2.9547    0.9637    0.4388 C   0  0  1  0  0  0  0  0  0  0  0  0
   -2.0038    1.4031    1.3241 O   0  0  0  0  0  0  0  0  0  0  0  0
   -2.4023    0.9133   -0.9820 C   0  0  0  0  0  0  0  0  0  0  0  0
    4.2975    0.7874   -1.0050 H   0  0  0  0  0  0  0  0  0  0  0  0
    3.8484    2.4289   -0.3491 H   0  0  0  0  0  0  0  0  0  0  0  0
    1.3425   -0.0444    1.2471 H   0  0  0  0  0  0  0  0  0  0  0  0
    3.1915   -1.0180    1.8923 H   0  0  0  0  0  0  0  0  0  0  0  0
    3.7319   -1.3892    0.2794 H   0  0  0  0  0  0  0  0  0  0  0  0
    2.2800   -1.5868   -1.2291 H   0  0  0  0  0  0  0  0  0  0  0  0
    1.3894   -2.2223    0.1526 H   0  0  0  0  0  0  0  0  0  0  0  0
    0.3620   -0.2348   -1.8264 H   0  0  0  0  0  0  0  0  0  0  0  0
   -0.5318   -0.2562    0.6125 H   0  0  0  0  0  0  0  0  0  0  0  0
   -0.9296   -1.9321    0.2454 H   0  0  0  0  0  0  0  0  0  0  0  0
   -2.4377   -1.1577   -1.6553 H   0  0  0  0  0  0  0  0  0  0  0  0
   -4.1735   -0.8312    0.0099 H   0  0  0  0  0  0  0  0  0  0  0  0
   -2.8364   -1.0575    1.2796 H   0  0  0  0  0  0  0  0  0  0  0  0
   -3.9426    1.4806    0.5218 H   0  0  0  0  0  0  0  0  0  0  0  0
   -1.5153    2.1641    0.9131 H   0  0  0  0  0  0  0  0  0  0  0  0
   -3.2338    1.1016   -1.6831 H   0  0  0  0  0  0  0  0  0  0  0  0
   -1.5104    1.5408   -1.1449 H   0  0  0  0  0  0  0  0  0  0  0  0
  1  2  1  0
  2  3  2  0
  2  4  1  0
  4  5  1  0
  4  6  1  0
  6  7  1  0
  7  8  1  0
  8  9  1  0
  9 10  1  0
 10 11  1  0
 11 12  1  0
 11 13  1  0
 13  9  1  0
  1 14  1  0
  1 15  1  0
  4 16  1  1
  5 17  1  0
  5 18  1  0
  6 19  1  0
  6 20  1  0
  7 21  1  0
  8 22  1  0
  8 23  1  0
  9 24  1  6
 10 25  1  0
 10 26  1  0
 11 27  1  6
 12 28  1  0
 13 29  1  0
 13 30  1  0
M  END
$$$$

     RDKit          3D

 30 30  0  0  0  0  0  0  0  0999 V2000
   -3.2463   -2.1330    0.5263 N   0  0  0  0  0  0  0  0  0  0  0  0
   -3.5837   -0.7647    0.4048 C   0  0  0  0  0  0  0  0  0  0  0  0
   -4.7846   -0.4430    0.2734 O   0  0  0  0  0  0  0  0  0  0  0  0
   -2.5329    0.2543    0.4308 C   0  0  2  0  0  0  0  0  0  0  0  0
   -3.0680    1.5506    0.1075 N   0  0  0  0  0  0  0  0  0  0  0  0
   -1.3873   -0.0194   -0.5417 C   0  0  0  0  0  0  0  0  0  0  0  0
   -0.4876    1.0764   -0.3846 N   0  0  0  0  0  0  0  0  0  0  0  0
    0.8160    0.8707   -0.9737 C   0  0  0  0  0  0  0  0  0  0  0  0
    1.6031   -0.1540   -0.2296 C   0  0  1  0  0  0  0  0  0  0  0  0
    2.9709   -0.3841   -0.7891 C   0  0  0  0  0  0  0  0  0  0  0  0
    3.4103   -0.6059    0.6741 C   0  0  1  0  0  0  0  0  0  0  0  0
    4.6763   -0.1902    0.9809 O   0  0  0  0  0  0  0  0  0  0  0  0
    2.3043    0.3951    1.0234 C   0  0  0  0  0  0  0  0  0  0  0  0
   -3.4410   -2.7587   -0.3041 H   0  0  0  0  0  0  0  0  0  0  0  0
   -2.8271   -2.5143    1.3868 H   0  0  0  0  0  0  0  0  0  0  0  0
   -2.0902    0.3540    1.4750 H   0  0  0  0  0  0  0  0  0  0  0  0
   -3.8579    1.5644   -0.5350 H   0  0  0  0  0  0  0  0  0  0  0  0
   -3.1534    2.1673    0.9544 H   0  0  0  0  0  0  0  0  0  0  0  0
   -1.8641    0.1050   -1.5616 H   0  0  0  0  0  0  0  0  0  0  0  0
   -0.9897   -1.0177   -0.5101 H   0  0  0  0  0  0  0  0  0  0  0  0
   -0.8588    1.9463   -0.8710 H   0  0  0  0  0  0  0  0  0  0  0  0
    1.3485    1.8332   -0.9231 H   0  0  0  0  0  0  0  0  0  0  0  0
    0.6768    0.6133   -2.0353 H   0  0  0  0  0  0  0  0  0  0  0  0
    1.1161   -1.0886    0.0269 H   0  0  0  0  0  0  0  0  0  0  0  0
    3.0770   -1.3071   -1.4032 H   0  0  0  0  0  0  0  0  0  0  0  0
    3.4526    0.5185   -1.1932 H   0  0  0  0  0  0  0  0  0  0  0  0
    3.1263   -1.6409    0.9549 H   0  0  0  0  0  0  0  0  0  0  0  0
    5.1250    0.2054    0.1973 H   0  0  0  0  0  0  0  0  0  0  0  0
    2.6939    1.4132    0.8922 H   0  0  0  0  0  0  0  0  0  0  0  0
    1.7754    0.1538    1.9468 H   0  0  0  0  0  0  0  0  0  0  0  0
  1  2  1  0
  2  3  2  0
  2  4  1  0
  4  5  1  0
  4  6  1  0
  6  7  1  0
  7  8  1  0
  8  9  1  0
  9 10  1  0
 10 11  1  0
 11 12  1  0
 11 13  1  0
 13  9  1  0
  1 14  1  0
  1 15  1  0
  4 16  1  1
  5 17  1  0
  5 18  1  0
  6 19  1  0
  6 20  1  0
  7 21  1  0
  8 22  1  0
  8 23  1  0
  9 24  1  1
 10 25  1  0
 10 26  1  0
 11 27  1  1
 12 28  1  0
 13 29  1  0
 13 30  1  0
M  END
$$$$

     RDKit          3D

 30 30  0  0  0  0  0  0  0  0999 V2000
    4.9516    0.2360    0.2296 N   0  0  0  0  0  0  0  0  0  0  0  0
    3.7039    0.1882    0.8982 C   0  0  0  0  0  0  0  0  0  0  0  0
    3.5703    0.6628    2.0661 O   0  0  0  0  0  0  0  0  0  0  0  0
    2.5032   -0.4097    0.2801 C   0  0  2  0  0  0  0  0  0  0  0  0
    2.8072   -0.9072   -1.0457 N   0  0  0  0  0  0  0  0  0  0  0  0
    1.3380    0.5603    0.2623 C   0  0  0  0  0  0  0  0  0  0  0  0
    0.2028   -0.0672   -0.3456 N   0  0  0  0  0  0  0  0  0  0  0  0
   -0.8982    0.8816   -0.3501 C   0  0  0  0  0  0  0  0  0  0  0  0
   -2.0810    0.1947   -0.9966 C   0  0  1  0  0  0  0  0  0  0  0  0
   -2.4677   -1.0453   -0.2171 C   0  0  0  0  0  0  0  0  0  0  0  0
   -3.8891   -0.4964   -0.1670 C   0  0  1  0  0  0  0  0  0  0  0  0
   -4.4574   -0.5263    1.0945 O   0  0  0  0  0  0  0  0  0  0  0  0
   -3.3717    0.8658   -0.5735 C   0  0  0  0  0  0  0  0  0  0  0  0
    5.3580    1.1518    0.0018 H   0  0  0  0  0  0  0  0  0  0  0  0
    5.4382   -0.6288   -0.0213 H   0  0  0  0  0  0  0  0  0  0  0  0
    2.2305   -1.2943    0.9040 H   0  0  0  0  0  0  0  0  0  0  0  0
    2.5853   -1.9221   -1.1432 H   0  0  0  0  0  0  0  0  0  0  0  0
    3.8163   -0.7593   -1.2543 H   0  0  0  0  0  0  0  0  0  0  0  0
    1.0817    0.7850    1.3173 H   0  0  0  0  0  0  0  0  0  0  0  0
    1.6420    1.4428   -0.3119 H   0  0  0  0  0  0  0  0  0  0  0  0
   -0.0586   -0.9602    0.0909 H   0  0  0  0  0  0  0  0  0  0  0  0
   -0.6079    1.7760   -0.9302 H   0  0  0  0  0  0  0  0  0  0  0  0
   -1.1336    1.1360    0.6962 H   0  0  0  0  0  0  0  0  0  0  0  0
   -1.9775    0.0664   -2.0752 H   0  0  0  0  0  0  0  0  0  0  0  0
   -2.3607   -1.9832   -0.7893 H   0  0  0  0  0  0  0  0  0  0  0  0
   -1.9766   -1.1185    0.7749 H   0  0  0  0  0  0  0  0  0  0  0  0
   -4.5752   -0.9625   -0.9146 H   0  0  0  0  0  0  0  0  0  0  0  0
   -4.2002    0.2490    1.6528 H   0  0  0  0  0  0  0  0  0  0  0  0
   -3.9068    1.3133   -1.4324 H   0  0  0  0  0  0  0  0  0  0  0  0
   -3.2667    1.5710    0.2741 H   0  0  0  0  0  0  0  0  0  0  0  0
  1  2  1  0
  2  3  2  0
  2  4  1  0
  4  5  1  0
  4  6  1  0
  6  7  1  0
  7  8  1  0
  8  9  1  0
  9 10  1  0
 10 11  1  0
 11 12  1  0
 11 13  1  0
 13  9  1  0
  1 14  1  0
  1 15  1  0
  4 16  1  1
  5 17  1  0
  5 18  1  0
  6 19  1  0
  6 20  1  0
  7 21  1  0
  8 22  1  0
  8 23  1  0
  9 24  1  6
 10 25  1  0
 10 26  1  0
 11 27  1  6
 12 28  1  0
 13 29  1  0
 13 30  1  0
M  END
$$$$

     RDKit          3D

 30 30  0  0  0  0  0  0  0  0999 V2000
   -4.4236    1.2941    0.4703 N   0  0  0  0  0  0  0  0  0  0  0  0
   -3.0046    1.3245    0.5256 C   0  0  0  0  0  0  0  0  0  0  0  0
   -2.4768    2.1590    1.2992 O   0  0  0  0  0  0  0  0  0  0  0  0
   -2.1489    0.4103   -0.2939 C   0  0  2  0  0  0  0  0  0  0  0  0
   -2.9879   -0.4558   -1.0893 N   0  0  0  0  0  0  0  0  0  0  0  0
   -1.2813   -0.3789    0.6563 C   0  0  0  0  0  0  0  0  0  0  0  0
   -0.4051   -1.3069   -0.0220 N   0  0  0  0  0  0  0  0  0  0  0  0
    0.6162   -0.6669   -0.7812 C   0  0  0  0  0  0  0  0  0  0  0  0
    1.6395    0.0508    0.0444 C   0  0  1  0  0  0  0  0  0  0  0  0
    2.4212   -0.7832    1.0223 C   0  0  0  0  0  0  0  0  0  0  0  0
    3.6172    0.1210    0.6882 C   0  0  1  0  0  0  0  0  0  0  0  0
    4.8352   -0.5196    0.6694 O   0  0  0  0  0  0  0  0  0  0  0  0
    2.9558    0.3163   -0.6755 C   0  0  0  0  0  0  0  0  0  0  0  0
   -4.9027    2.0328   -0.0801 H   0  0  0  0  0  0  0  0  0  0  0  0
   -4.9297    0.5461    0.9742 H   0  0  0  0  0  0  0  0  0  0  0  0
   -1.5085    1.0333   -0.9548 H   0  0  0  0  0  0  0  0  0  0  0  0
   -3.0414   -1.4375   -0.7003 H   0  0  0  0  0  0  0  0  0  0  0  0
   -3.9596   -0.0687   -1.1922 H   0  0  0  0  0  0  0  0  0  0  0  0
   -0.6396    0.3428    1.2199 H   0  0  0  0  0  0  0  0  0  0  0  0
   -1.9371   -0.9611    1.3486 H   0  0  0  0  0  0  0  0  0  0  0  0
   -1.0063   -1.8449   -0.6927 H   0  0  0  0  0  0  0  0  0  0  0  0
    0.1680    0.0545   -1.4878 H   0  0  0  0  0  0  0  0  0  0  0  0
    1.1451   -1.4304   -1.4130 H   0  0  0  0  0  0  0  0  0  0  0  0
    1.3039    0.9916    0.5140 H   0  0  0  0  0  0  0  0  0  0  0  0
    2.6701   -1.8058    0.6984 H   0  0  0  0  0  0  0  0  0  0  0  0
    2.1025   -0.6773    2.0879 H   0  0  0  0  0  0  0  0  0  0  0  0
    3.5493    1.0383    1.3006 H   0  0  0  0  0  0  0  0  0  0  0  0
    5.3723   -0.2110    1.4537 H   0  0  0  0  0  0  0  0  0  0  0  0
    3.2291   -0.5030   -1.3659 H   0  0  0  0  0  0  0  0  0  0  0  0
    3.0276    1.3354   -1.0851 H   0  0  0  0  0  0  0  0  0  0  0  0
  1  2  1  0
  2  3  2  0
  2  4  1  0
  4  5  1  0
  4  6  1  0
  6  7  1  0
  7  8  1  0
  8  9  1  0
  9 10  1  0
 10 11  1  0
 11 12  1  0
 11 13  1  0
 13  9  1  0
  1 14  1  0
  1 15  1  0
  4 16  1  6
  5 17  1  0
  5 18  1  0
  6 19  1  0
  6 20  1  0
  7 21  1  0
  8 22  1  0
  8 23  1  0
  9 24  1  1
 10 25  1  0
 10 26  1  0
 11 27  1  1
 12 28  1  0
 13 29  1  0
 13 30  1  0
M  END
$$$$

     RDKit          3D

 30 30  0  0  0  0  0  0  0  0999 V2000
    4.6842   -0.4975   -0.6626 N   0  0  0  0  0  0  0  0  0  0  0  0
    3.7004    0.0733    0.1766 C   0  0  0  0  0  0  0  0  0  0  0  0
    4.0552    0.7771    1.1520 O   0  0  0  0  0  0  0  0  0  0  0  0
    2.2517   -0.1408   -0.0713 C   0  0  2  0  0  0  0  0  0  0  0  0
    2.0515   -0.9561   -1.2631 N   0  0  0  0  0  0  0  0  0  0  0  0
    1.6043    1.2006   -0.1724 C   0  0  0  0  0  0  0  0  0  0  0  0
    0.1826    1.1449   -0.4126 N   0  0  0  0  0  0  0  0  0  0  0  0
   -0.5072    0.6222    0.7491 C   0  0  0  0  0  0  0  0  0  0  0  0
   -1.9678    0.6052    0.4900 C   0  0  1  0  0  0  0  0  0  0  0  0
   -2.4631   -0.2255   -0.6731 C   0  0  0  0  0  0  0  0  0  0  0  0
   -3.7582   -0.3479    0.1523 C   0  0  1  0  0  0  0  0  0  0  0  0
   -4.4757   -1.4985   -0.0387 O   0  0  0  0  0  0  0  0  0  0  0  0
   -2.7995   -0.3551    1.3561 C   0  0  0  0  0  0  0  0  0  0  0  0
    5.4764   -1.0196   -0.2128 H   0  0  0  0  0  0  0  0  0  0  0  0
    4.6601   -0.4249   -1.6993 H   0  0  0  0  0  0  0  0  0  0  0  0
    1.8270   -0.6659    0.8176 H   0  0  0  0  0  0  0  0  0  0  0  0
    1.6610   -0.4454   -2.0621 H   0  0  0  0  0  0  0  0  0  0  0  0
    2.9225   -1.4798   -1.4814 H   0  0  0  0  0  0  0  0  0  0  0  0
    1.7656    1.7210    0.8116 H   0  0  0  0  0  0  0  0  0  0  0  0
    2.1072    1.8609   -0.9144 H   0  0  0  0  0  0  0  0  0  0  0  0
   -0.1758    2.0628   -0.7114 H   0  0  0  0  0  0  0  0  0  0  0  0
   -0.3347    1.3345    1.6009 H   0  0  0  0  0  0  0  0  0  0  0  0
   -0.1516   -0.3650    1.0556 H   0  0  0  0  0  0  0  0  0  0  0  0
   -2.4716    1.5933    0.4570 H   0  0  0  0  0  0  0  0  0  0  0  0
   -1.9493   -1.2058   -0.7340 H   0  0  0  0  0  0  0  0  0  0  0  0
   -2.6051    0.3029   -1.6289 H   0  0  0  0  0  0  0  0  0  0  0  0
   -4.2994    0.6237    0.0455 H   0  0  0  0  0  0  0  0  0  0  0  0
   -5.4224   -1.3106    0.1719 H   0  0  0  0  0  0  0  0  0  0  0  0
   -3.2226    0.1046    2.2634 H   0  0  0  0  0  0  0  0  0  0  0  0
   -2.3456   -1.3489    1.4383 H   0  0  0  0  0  0  0  0  0  0  0  0
  1  2  1  0
  2  3  2  0
  2  4  1  0
  4  5  1  0
  4  6  1  0
  6  7  1  0
  7  8  1  0
  8  9  1  0
  9 10  1  0
 10 11  1  0
 11 12  1  0
 11 13  1  0
 13  9  1  0
  1 14  1  0
  1 15  1  0
  4 16  1  1
  5 17  1  0
  5 18  1  0
  6 19  1  0
  6 20  1  0
  7 21  1  0
  8 22  1  0
  8 23  1  0
  9 24  1  6
 10 25  1  0
 10 26  1  0
 11 27  1  1
 12 28  1  0
 13 29  1  0
 13 30  1  0
M  END
$$$$
