
     RDKit          3D

 29 30  0  0  0  0  0  0  0  0999 V2000
   -3.7081   -1.2025   -0.3314 N   0  0  0  0  0  0  0  0  0  0  0  0
   -3.7901    0.0241    0.0489 C   0  0  0  0  0  0  0  0  0  0  0  0
   -5.0252    0.7231   -0.0147 N   0  0  0  0  0  0  0  0  0  0  0  0
   -2.5868    0.6218    0.5270 N   0  0  0  0  0  0  0  0  0  0  0  0
   -1.4637   -0.1545    0.9248 C   0  0  0  0  0  0  0  0  0  0  0  0
   -1.6513   -1.3183    1.3700 N   0  0  0  0  0  0  0  0  0  0  0  0
   -0.1301    0.3366    0.8450 N   0  0  0  0  0  0  0  0  0  0  0  0
    1.0335   -0.3851    1.2418 C   0  0  1  0  0  0  0  0  0  0  0  0
    1.4523   -1.6626    0.6690 C   0  0  0  0  0  0  0  0  0  0  0  0
    2.0707   -0.4696    0.1802 C   0  0  0  0  0  0  0  0  0  0  0  0
    3.4430    0.0076    0.3251 C   0  0  0  0  0  0  0  0  0  0  0  0
    3.2279    0.8795   -0.9016 C   0  0  0  0  0  0  0  0  0  0  0  0
    2.9673    2.2214   -0.5509 O   0  0  0  0  0  0  0  0  0  0  0  0
    1.9137    0.1526   -1.1502 C   0  0  0  0  0  0  0  0  0  0  0  0
   -4.5319   -1.7377   -0.7000 H   0  0  0  0  0  0  0  0  0  0  0  0
   -5.9529    0.2711    0.1325 H   0  0  0  0  0  0  0  0  0  0  0  0
   -5.0240    1.7449   -0.2186 H   0  0  0  0  0  0  0  0  0  0  0  0
   -2.5182    1.6595    0.5898 H   0  0  0  0  0  0  0  0  0  0  0  0
   -2.5102   -1.8604    1.5160 H   0  0  0  0  0  0  0  0  0  0  0  0
   -0.0031    1.3012    0.4651 H   0  0  0  0  0  0  0  0  0  0  0  0
    1.3910   -0.1188    2.2766 H   0  0  0  0  0  0  0  0  0  0  0  0
    0.7805   -2.2697    0.0200 H   0  0  0  0  0  0  0  0  0  0  0  0
    2.0539   -2.3292    1.3503 H   0  0  0  0  0  0  0  0  0  0  0  0
    3.6061    0.6091    1.2533 H   0  0  0  0  0  0  0  0  0  0  0  0
    4.2140   -0.7603    0.1377 H   0  0  0  0  0  0  0  0  0  0  0  0
    3.9550    0.7523   -1.7056 H   0  0  0  0  0  0  0  0  0  0  0  0
    3.8198    2.6609   -0.3045 H   0  0  0  0  0  0  0  0  0  0  0  0
    1.9299   -0.5239   -2.0315 H   0  0  0  0  0  0  0  0  0  0  0  0
    1.0371    0.8269   -1.2285 H   0  0  0  0  0  0  0  0  0  0  0  0
  1  2  2  3
  2  3  1  0
  2  4  1  0
  4  5  1  0
  5  6  2  3
  5  7  1  0
  7  8  1  0
  8  9  1  0
  9 10  1  0
 10 11  1  0
 11 12  1  0
 12 13  1  0
 12 14  1  0
 10  8  1  0
 14 10  1  0
  1 15  1  0
  3 16  1  0
  3 17  1  0
  4 18  1  0
  6 19  1  0
  7 20  1  0
  8 21  1  1
  9 22  1  0
  9 23  1  0
 11 24  1  0
 11 25  1  0
 12 26  1  0
 13 27  1  0
 14 28  1  0
 14 29  1  0
M  END
$$$$

     RDKit          3D

 29 30  0  0  0  0  0  0  0  0999 V2000
   -4.0005   -0.8142    1.2771 N   0  0  0  0  0  0  0  0  0  0  0  0
   -4.0421    0.3256    0.6891 C   0  0  0  0  0  0  0  0  0  0  0  0
   -5.2677    1.0333    0.6674 N   0  0  0  0  0  0  0  0  0  0  0  0
   -2.8542    0.8185    0.0897 N   0  0  0  0  0  0  0  0  0  0  0  0
   -1.6201    0.0997    0.1038 C   0  0  0  0  0  0  0  0  0  0  0  0
   -1.5427   -0.8931    0.9171 N   0  0  0  0  0  0  0  0  0  0  0  0
   -0.5202    0.4376   -0.7225 N   0  0  0  0  0  0  0  0  0  0  0  0
    0.5793   -0.4846   -0.9017 C   0  0  1  0  0  0  0  0  0  0  0  0
    1.6978    0.0343   -1.8322 C   0  0  0  0  0  0  0  0  0  0  0  0
    1.9257   -0.2210   -0.4278 C   0  0  0  0  0  0  0  0  0  0  0  0
    2.3093    0.7664    0.5952 C   0  0  0  0  0  0  0  0  0  0  0  0
    3.4164   -0.2005    1.0412 C   0  0  0  0  0  0  0  0  0  0  0  0
    4.6795    0.1686    0.5677 O   0  0  0  0  0  0  0  0  0  0  0  0
    2.8406   -1.2765    0.1112 C   0  0  0  0  0  0  0  0  0  0  0  0
   -4.8168   -1.2598    1.7453 H   0  0  0  0  0  0  0  0  0  0  0  0
   -5.3564    2.0482    0.7584 H   0  0  0  0  0  0  0  0  0  0  0  0
   -6.1587    0.4835    0.5494 H   0  0  0  0  0  0  0  0  0  0  0  0
   -2.8387    1.7623   -0.4031 H   0  0  0  0  0  0  0  0  0  0  0  0
   -0.6779   -1.4482    0.9711 H   0  0  0  0  0  0  0  0  0  0  0  0
   -0.5326    1.3568   -1.1870 H   0  0  0  0  0  0  0  0  0  0  0  0
    0.3104   -1.5726   -1.0382 H   0  0  0  0  0  0  0  0  0  0  0  0
    1.9907   -0.6716   -2.6432 H   0  0  0  0  0  0  0  0  0  0  0  0
    1.6105    1.1097   -2.1545 H   0  0  0  0  0  0  0  0  0  0  0  0
    2.7587    1.7115    0.2239 H   0  0  0  0  0  0  0  0  0  0  0  0
    1.5624    0.9472    1.4181 H   0  0  0  0  0  0  0  0  0  0  0  0
    3.3645   -0.4825    2.0979 H   0  0  0  0  0  0  0  0  0  0  0  0
    5.4055   -0.0675    1.2110 H   0  0  0  0  0  0  0  0  0  0  0  0
    2.2362   -2.0454    0.6669 H   0  0  0  0  0  0  0  0  0  0  0  0
    3.5413   -1.6654   -0.6302 H   0  0  0  0  0  0  0  0  0  0  0  0
  1  2  2  3
  2  3  1  0
  2  4  1  0
  4  5  1  0
  5  6  2  3
  5  7  1  0
  7  8  1  0
  8  9  1  0
  9 10  1  0
 10 11  1  0
 11 12  1  0
 12 13  1  0
 12 14  1  0
 10  8  1  0
 14 10  1  0
  1 15  1  0
  3 16  1  0
  3 17  1  0
  4 18  1  0
  6 19  1  0
  7 20  1  0
  8 21  1  6
  9 22  1  0
  9 23  1  0
 11 24  1  0
 11 25  1  0
 12 26  1  0
 13 27  1  0
 14 28  1  0
 14 29  1  0
M  END
$$$$

     RDKit          3D

 29 30  0  0  0  0  0  0  0  0999 V2000
    4.4310   -0.7281    0.5974 N   0  0  0  0  0  0  0  0  0  0  0  0
    4.0313   -0.2013   -0.5340 C   0  0  0  0  0  0  0  0  0  0  0  0
    4.8975    0.6321   -1.3068 N   0  0  0  0  0  0  0  0  0  0  0  0
    2.7036   -0.5024   -0.9436 N   0  0  0  0  0  0  0  0  0  0  0  0
    1.6699   -0.8600   -0.0104 C   0  0  0  0  0  0  0  0  0  0  0  0
    2.0070   -0.9987    1.2142 N   0  0  0  0  0  0  0  0  0  0  0  0
    0.3260   -1.0529   -0.4248 N   0  0  0  0  0  0  0  0  0  0  0  0
   -0.7484   -0.8086    0.5074 C   0  0  1  0  0  0  0  0  0  0  0  0
   -0.8151    0.6490    1.0561 C   0  0  0  0  0  0  0  0  0  0  0  0
   -1.8610    0.0645    0.2515 C   0  0  0  0  0  0  0  0  0  0  0  0
   -2.2979    0.5609   -1.0855 C   0  0  0  0  0  0  0  0  0  0  0  0
   -3.6603    0.8626   -0.4435 C   0  0  0  0  0  0  0  0  0  0  0  0
   -4.7462    0.4918   -1.1964 O   0  0  0  0  0  0  0  0  0  0  0  0
   -3.2652   -0.1372    0.6534 C   0  0  0  0  0  0  0  0  0  0  0  0
    5.4019   -0.5226    0.9211 H   0  0  0  0  0  0  0  0  0  0  0  0
    4.8842    0.5201   -2.3392 H   0  0  0  0  0  0  0  0  0  0  0  0
    5.4996    1.3107   -0.8020 H   0  0  0  0  0  0  0  0  0  0  0  0
    2.4882   -0.4579   -1.9604 H   0  0  0  0  0  0  0  0  0  0  0  0
    1.2781   -1.2575    1.9128 H   0  0  0  0  0  0  0  0  0  0  0  0
    0.1782   -1.3726   -1.4161 H   0  0  0  0  0  0  0  0  0  0  0  0
   -0.8676   -1.6039    1.2956 H   0  0  0  0  0  0  0  0  0  0  0  0
   -0.0506    1.3464    0.6443 H   0  0  0  0  0  0  0  0  0  0  0  0
   -0.9966    0.7446    2.1515 H   0  0  0  0  0  0  0  0  0  0  0  0
   -1.7589    1.4459   -1.4377 H   0  0  0  0  0  0  0  0  0  0  0  0
   -2.4302   -0.2223   -1.8660 H   0  0  0  0  0  0  0  0  0  0  0  0
   -3.6688    1.8956   -0.0503 H   0  0  0  0  0  0  0  0  0  0  0  0
   -5.4379    1.2142   -1.0895 H   0  0  0  0  0  0  0  0  0  0  0  0
   -3.6228   -1.1636    0.3502 H   0  0  0  0  0  0  0  0  0  0  0  0
   -3.5688    0.1513    1.6635 H   0  0  0  0  0  0  0  0  0  0  0  0
  1  2  2  3
  2  3  1  0
  2  4  1  0
  4  5  1  0
  5  6  2  3
  5  7  1  0
  7  8  1  0
  8  9  1  0
  9 10  1  0
 10 11  1  0
 11 12  1  0
 12 13  1  0
 12 14  1  0
 10  8  1  0
 14 10  1  0
  1 15  1  0
  3 16  1  0
  3 17  1  0
  4 18  1  0
  6 19  1  0
  7 20  1  0
  8 21  1  1
  9 22  1  0
  9 23  1  0
 11 24  1  0
 11 25  1  0
 12 26  1  0
 13 27  1  0
 14 28  1  0
 14 29  1  0
M  END
$$$$

     RDKit          3D

 29 30  0  0  0  0  0  0  0  0999 V2000
    4.3942   -1.1900    0.2317 N   0  0  0  0  0  0  0  0  0  0  0  0
    4.1290   -0.0304   -0.2283 C   0  0  0  0  0  0  0  0  0  0  0  0
    5.1948    0.9023   -0.3640 N   0  0  0  0  0  0  0  0  0  0  0  0
    2.7859    0.2684   -0.5764 N   0  0  0  0  0  0  0  0  0  0  0  0
    1.6779   -0.3608    0.0587 C   0  0  0  0  0  0  0  0  0  0  0  0
    1.9110   -0.9083    1.2066 N   0  0  0  0  0  0  0  0  0  0  0  0
    0.3753   -0.4035   -0.5077 N   0  0  0  0  0  0  0  0  0  0  0  0
   -0.7442   -0.8845    0.2620 C   0  0  1  0  0  0  0  0  0  0  0  0
   -1.0309   -0.0798    1.5585 C   0  0  0  0  0  0  0  0  0  0  0  0
   -1.9022   -0.0338    0.4174 C   0  0  0  0  0  0  0  0  0  0  0  0
   -2.2386    1.1448   -0.4018 C   0  0  0  0  0  0  0  0  0  0  0  0
   -3.4354    0.3412   -0.9247 C   0  0  0  0  0  0  0  0  0  0  0  0
   -4.5920    1.0507   -1.0611 O   0  0  0  0  0  0  0  0  0  0  0  0
   -3.3194   -0.4840    0.3631 C   0  0  0  0  0  0  0  0  0  0  0  0
    3.7684   -1.9728    0.3938 H   0  0  0  0  0  0  0  0  0  0  0  0
    5.9833    0.6954   -1.0038 H   0  0  0  0  0  0  0  0  0  0  0  0
    5.1890    1.7987    0.1789 H   0  0  0  0  0  0  0  0  0  0  0  0
    2.6044    0.9685   -1.3161 H   0  0  0  0  0  0  0  0  0  0  0  0
    1.1328   -1.3820    1.7125 H   0  0  0  0  0  0  0  0  0  0  0  0
    0.2898   -0.0705   -1.4949 H   0  0  0  0  0  0  0  0  0  0  0  0
   -0.8686   -1.9836    0.3233 H   0  0  0  0  0  0  0  0  0  0  0  0
   -1.2025   -0.7202    2.4388 H   0  0  0  0  0  0  0  0  0  0  0  0
   -0.3297    0.7602    1.7771 H   0  0  0  0  0  0  0  0  0  0  0  0
   -1.5753    1.3838   -1.2570 H   0  0  0  0  0  0  0  0  0  0  0  0
   -2.5516    2.0762    0.1294 H   0  0  0  0  0  0  0  0  0  0  0  0
   -3.1308   -0.2974   -1.7766 H   0  0  0  0  0  0  0  0  0  0  0  0
   -5.1573    1.0810   -0.2506 H   0  0  0  0  0  0  0  0  0  0  0  0
   -3.3996   -1.5654    0.1803 H   0  0  0  0  0  0  0  0  0  0  0  0
   -3.9579   -0.1042    1.1936 H   0  0  0  0  0  0  0  0  0  0  0  0
  1  2  2  3
  2  3  1  0
  2  4  1  0
  4  5  1  0
  5  6  2  3
  5  7  1  0
  7  8  1  0
  8  9  1  0
  9 10  1  0
 10 11  1  0
 11 12  1  0
 12 13  1  0
 12 14  1  0
 10  8  1  0
 14 10  1  0
  1 15  1  0
  3 16  1  0
  3 17  1  0
  4 18  1  0
  6 19  1  0
  7 20  1  0
  8 21  1  1
  9 22  1  0
  9 23  1  0
 11 24  1  0
 11 25  1  0
 12 26  1  0
 13 27  1  0
 14 28  1  0
 14 29  1  0
M  END
$$$$

     RDKit          3D

 29 30  0  0  0  0  0  0  0  0999 V2000
    4.2776    1.2698   -0.3995 N   0  0  0  0  0  0  0  0  0  0  0  0
    4.1392    0.1720    0.2995 C   0  0  0  0  0  0  0  0  0  0  0  0
    5.2792   -0.5149    0.7860 N   0  0  0  0  0  0  0  0  0  0  0  0
    2.8271   -0.3042    0.5525 N   0  0  0  0  0  0  0  0  0  0  0  0
    1.6773    0.3535    0.0298 C   0  0  0  0  0  0  0  0  0  0  0  0
    1.8346    1.0807   -1.0256 N   0  0  0  0  0  0  0  0  0  0  0  0
    0.3902    0.2255    0.6367 N   0  0  0  0  0  0  0  0  0  0  0  0
   -0.7499    0.7153   -0.0656 C   0  0  1  0  0  0  0  0  0  0  0  0
   -0.9929    0.0522   -1.4452 C   0  0  0  0  0  0  0  0  0  0  0  0
   -1.9514   -0.0237   -0.3462 C   0  0  0  0  0  0  0  0  0  0  0  0
   -3.3286    0.5133   -0.3808 C   0  0  0  0  0  0  0  0  0  0  0  0
   -3.8348   -0.8702   -0.0226 C   0  0  0  0  0  0  0  0  0  0  0  0
   -4.6883   -0.8518    1.0715 O   0  0  0  0  0  0  0  0  0  0  0  0
   -2.4059   -1.2679    0.3045 C   0  0  0  0  0  0  0  0  0  0  0  0
    5.2387    1.6337   -0.5945 H   0  0  0  0  0  0  0  0  0  0  0  0
    6.0391    0.0495    1.2142 H   0  0  0  0  0  0  0  0  0  0  0  0
    5.3963   -1.5446    0.7384 H   0  0  0  0  0  0  0  0  0  0  0  0
    2.6728   -1.1597    1.1360 H   0  0  0  0  0  0  0  0  0  0  0  0
    1.0468    1.5961   -1.4732 H   0  0  0  0  0  0  0  0  0  0  0  0
    0.3481   -0.2288    1.5817 H   0  0  0  0  0  0  0  0  0  0  0  0
   -0.8202    1.8409   -0.0709 H   0  0  0  0  0  0  0  0  0  0  0  0
   -1.1025    0.7449   -2.3005 H   0  0  0  0  0  0  0  0  0  0  0  0
   -0.4070   -0.8765   -1.6546 H   0  0  0  0  0  0  0  0  0  0  0  0
   -3.7037    0.9239   -1.3302 H   0  0  0  0  0  0  0  0  0  0  0  0
   -3.4973    1.2328    0.4671 H   0  0  0  0  0  0  0  0  0  0  0  0
   -4.2454   -1.3535   -0.9393 H   0  0  0  0  0  0  0  0  0  0  0  0
   -5.1191    0.0489    1.1375 H   0  0  0  0  0  0  0  0  0  0  0  0
   -2.0529   -2.1949   -0.1922 H   0  0  0  0  0  0  0  0  0  0  0  0
   -2.2671   -1.2624    1.4153 H   0  0  0  0  0  0  0  0  0  0  0  0
  1  2  2  3
  2  3  1  0
  2  4  1  0
  4  5  1  0
  5  6  2  3
  5  7  1  0
  7  8  1  0
  8  9  1  0
  9 10  1  0
 10 11  1  0
 11 12  1  0
 12 13  1  0
 12 14  1  0
 10  8  1  0
 14 10  1  0
  1 15  1  0
  3 16  1  0
  3 17  1  0
  4 18  1  0
  6 19  1  0
  7 20  1  0
  8 21  1  6
  9 22  1  0
  9 23  1  0
 11 24  1  0
 11 25  1  0
 12 26  1  0
 13 27  1  0
 14 28  1  0
 14 29  1  0
M  END
$$$$

     RDKit          3D

 29 30  0  0  0  0  0  0  0  0999 V2000
    4.3837    0.7964    0.1316 N   0  0  0  0  0  0  0  0  0  0  0  0
    4.1616   -0.4561   -0.0248 C   0  0  0  0  0  0  0  0  0  0  0  0
    5.2340   -1.3000   -0.3998 N   0  0  0  0  0  0  0  0  0  0  0  0
    2.8398   -0.9369    0.1823 N   0  0  0  0  0  0  0  0  0  0  0  0
    1.7351   -0.0916   -0.1117 C   0  0  0  0  0  0  0  0  0  0  0  0
    1.8525    0.7796   -1.0336 N   0  0  0  0  0  0  0  0  0  0  0  0
    0.4974   -0.1880    0.5677 N   0  0  0  0  0  0  0  0  0  0  0  0
   -0.5184    0.7918    0.3293 C   0  0  1  0  0  0  0  0  0  0  0  0
   -1.1021    1.0259   -1.0048 C   0  0  0  0  0  0  0  0  0  0  0  0
   -1.8650    0.3835    0.1218 C   0  0  0  0  0  0  0  0  0  0  0  0
   -3.1314    0.9808    0.5113 C   0  0  0  0  0  0  0  0  0  0  0  0
   -3.8219   -0.2441   -0.1113 C   0  0  0  0  0  0  0  0  0  0  0  0
   -4.8162   -0.7940    0.6616 O   0  0  0  0  0  0  0  0  0  0  0  0
   -2.4584   -0.9443    0.0065 C   0  0  0  0  0  0  0  0  0  0  0  0
    3.6878    1.5122    0.4044 H   0  0  0  0  0  0  0  0  0  0  0  0
    5.1321   -1.9079   -1.2326 H   0  0  0  0  0  0  0  0  0  0  0  0
    6.1218   -1.3309    0.1324 H   0  0  0  0  0  0  0  0  0  0  0  0
    2.6664   -1.8919    0.5458 H   0  0  0  0  0  0  0  0  0  0  0  0
    2.7293    0.8788   -1.5672 H   0  0  0  0  0  0  0  0  0  0  0  0
    0.3472   -0.9713    1.2294 H   0  0  0  0  0  0  0  0  0  0  0  0
   -0.3499    1.7369    0.9288 H   0  0  0  0  0  0  0  0  0  0  0  0
   -1.3800    2.0547   -1.3113 H   0  0  0  0  0  0  0  0  0  0  0  0
   -0.9533    0.3483   -1.8597 H   0  0  0  0  0  0  0  0  0  0  0  0
   -3.4060    0.9990    1.5980 H   0  0  0  0  0  0  0  0  0  0  0  0
   -3.3644    1.9259    0.0121 H   0  0  0  0  0  0  0  0  0  0  0  0
   -4.0866    0.0126   -1.1601 H   0  0  0  0  0  0  0  0  0  0  0  0
   -5.5293   -0.1000    0.7574 H   0  0  0  0  0  0  0  0  0  0  0  0
   -2.4537   -1.6118    0.8812 H   0  0  0  0  0  0  0  0  0  0  0  0
   -2.1522   -1.4575   -0.9416 H   0  0  0  0  0  0  0  0  0  0  0  0
  1  2  2  3
  2  3  1  0
  2  4  1  0
  4  5  1  0
  5  6  2  3
  5  7  1  0
  7  8  1  0
  8  9  1  0
  9 10  1  0
 10 11  1  0
 11 12  1  0
 12 13  1  0
 12 14  1  0
 10  8  1  0
 14 10  1  0
  1 15  1  0
  3 16  1  0
  3 17  1  0
  4 18  1  0
  6 19  1  0
  7 20  1  0
  8 21  1  1
  9 22  1  0
  9 23  1  0
 11 24  1  0
 11 25  1  0
 12 26  1  0
 13 27  1  0
 14 28  1  0
 14 29  1  0
M  END
$$$$

     RDKit          3D

 29 30  0  0  0  0  0  0  0  0999 V2000
    4.2721   -0.6514    0.5452 N   0  0  0  0  0  0  0  0  0  0  0  0
    3.8491    0.4359    1.0852 C   0  0  0  0  0  0  0  0  0  0  0  0
    4.7429    1.5206    1.4169 N   0  0  0  0  0  0  0  0  0  0  0  0
    2.4493    0.5362    1.3354 N   0  0  0  0  0  0  0  0  0  0  0  0
    1.5094   -0.1252    0.4553 C   0  0  0  0  0  0  0  0  0  0  0  0
    1.8458   -0.2959   -0.7622 N   0  0  0  0  0  0  0  0  0  0  0  0
    0.2494   -0.5620    0.9113 N   0  0  0  0  0  0  0  0  0  0  0  0
   -0.6467   -1.3087    0.0506 C   0  0  1  0  0  0  0  0  0  0  0  0
   -1.9639   -1.7585    0.5447 C   0  0  0  0  0  0  0  0  0  0  0  0
   -1.8677   -0.6450   -0.3680 C   0  0  0  0  0  0  0  0  0  0  0  0
   -2.2427    0.7518   -0.1037 C   0  0  0  0  0  0  0  0  0  0  0  0
   -3.2230    0.6466   -1.2810 C   0  0  0  0  0  0  0  0  0  0  0  0
   -3.2009    1.7098   -2.1471 O   0  0  0  0  0  0  0  0  0  0  0  0
   -2.4018   -0.5699   -1.7352 C   0  0  0  0  0  0  0  0  0  0  0  0
    3.6536   -1.4391    0.3015 H   0  0  0  0  0  0  0  0  0  0  0  0
    4.9948    2.2162    0.6562 H   0  0  0  0  0  0  0  0  0  0  0  0
    5.1444    1.6478    2.3550 H   0  0  0  0  0  0  0  0  0  0  0  0
    2.1122    1.0800    2.1407 H   0  0  0  0  0  0  0  0  0  0  0  0
    2.7169   -0.0235   -1.2336 H   0  0  0  0  0  0  0  0  0  0  0  0
   -0.0045   -0.3221    1.8940 H   0  0  0  0  0  0  0  0  0  0  0  0
   -0.1458   -1.9867   -0.6893 H   0  0  0  0  0  0  0  0  0  0  0  0
   -2.2955   -1.5649    1.5843 H   0  0  0  0  0  0  0  0  0  0  0  0
   -2.3870   -2.7180    0.1403 H   0  0  0  0  0  0  0  0  0  0  0  0
   -2.7349    0.9942    0.8555 H   0  0  0  0  0  0  0  0  0  0  0  0
   -1.4537    1.5307   -0.3066 H   0  0  0  0  0  0  0  0  0  0  0  0
   -4.2172    0.3672   -0.8614 H   0  0  0  0  0  0  0  0  0  0  0  0
   -4.1058    2.1461   -2.2168 H   0  0  0  0  0  0  0  0  0  0  0  0
   -1.6385   -0.2032   -2.4811 H   0  0  0  0  0  0  0  0  0  0  0  0
   -3.0100   -1.4091   -2.0859 H   0  0  0  0  0  0  0  0  0  0  0  0
  1  2  2  3
  2  3  1  0
  2  4  1  0
  4  5  1  0
  5  6  2  3
  5  7  1  0
  7  8  1  0
  8  9  1  0
  9 10  1  0
 10 11  1  0
 11 12  1  0
 12 13  1  0
 12 14  1  0
 10  8  1  0
 14 10  1  0
  1 15  1  0
  3 16  1  0
  3 17  1  0
  4 18  1  0
  6 19  1  0
  7 20  1  0
  8 21  1  6
  9 22  1  0
  9 23  1  0
 11 24  1  0
 11 25  1  0
 12 26  1  0
 13 27  1  0
 14 28  1  0
 14 29  1  0
M  END
$$$$

     RDKit          3D

 29 30  0  0  0  0  0  0  0  0999 V2000
    4.4220   -0.8183    0.7640 N   0  0  0  0  0  0  0  0  0  0  0  0
    4.1382   -0.0977   -0.2552 C   0  0  0  0  0  0  0  0  0  0  0  0
    5.1295    0.7416   -0.8844 N   0  0  0  0  0  0  0  0  0  0  0  0
    2.8035   -0.1399   -0.7542 N   0  0  0  0  0  0  0  0  0  0  0  0
    1.7077   -0.3299    0.1481 C   0  0  0  0  0  0  0  0  0  0  0  0
    1.8980   -0.0980    1.4102 N   0  0  0  0  0  0  0  0  0  0  0  0
    0.4376   -0.7559   -0.2822 N   0  0  0  0  0  0  0  0  0  0  0  0
   -0.7049   -0.8065    0.6122 C   0  0  1  0  0  0  0  0  0  0  0  0
   -1.0878    0.5717    1.2376 C   0  0  0  0  0  0  0  0  0  0  0  0
   -1.9534   -0.1246    0.3099 C   0  0  0  0  0  0  0  0  0  0  0  0
   -2.3732    0.3642   -1.0179 C   0  0  0  0  0  0  0  0  0  0  0  0
   -3.8125    0.2709   -0.5403 C   0  0  0  0  0  0  0  0  0  0  0  0
   -4.2501    1.4743    0.0220 O   0  0  0  0  0  0  0  0  0  0  0  0
   -3.3060   -0.6337    0.5866 C   0  0  0  0  0  0  0  0  0  0  0  0
    3.7324   -1.4195    1.2211 H   0  0  0  0  0  0  0  0  0  0  0  0
    5.9903    0.2790   -1.2198 H   0  0  0  0  0  0  0  0  0  0  0  0
    5.0225    1.7618   -1.0132 H   0  0  0  0  0  0  0  0  0  0  0  0
    2.6373   -0.0289   -1.7780 H   0  0  0  0  0  0  0  0  0  0  0  0
    1.1332   -0.2216    2.1049 H   0  0  0  0  0  0  0  0  0  0  0  0
    0.3537   -1.0400   -1.2966 H   0  0  0  0  0  0  0  0  0  0  0  0
   -0.7153   -1.6418    1.3372 H   0  0  0  0  0  0  0  0  0  0  0  0
   -1.2919    0.5646    2.3275 H   0  0  0  0  0  0  0  0  0  0  0  0
   -0.5221    1.4474    0.8588 H   0  0  0  0  0  0  0  0  0  0  0  0
   -2.2181   -0.3588   -1.8685 H   0  0  0  0  0  0  0  0  0  0  0  0
   -2.0473    1.3753   -1.3013 H   0  0  0  0  0  0  0  0  0  0  0  0
   -4.5024   -0.2106   -1.2376 H   0  0  0  0  0  0  0  0  0  0  0  0
   -3.4462    1.9211    0.4132 H   0  0  0  0  0  0  0  0  0  0  0  0
   -3.5050   -1.7126    0.3432 H   0  0  0  0  0  0  0  0  0  0  0  0
   -3.6696   -0.3336    1.5982 H   0  0  0  0  0  0  0  0  0  0  0  0
  1  2  2  3
  2  3  1  0
  2  4  1  0
  4  5  1  0
  5  6  2  3
  5  7  1  0
  7  8  1  0
  8  9  1  0
  9 10  1  0
 10 11  1  0
 11 12  1  0
 12 13  1  0
 12 14  1  0
 10  8  1  0
 14 10  1  0
  1 15  1  0
  3 16  1  0
  3 17  1  0
  4 18  1  0
  6 19  1  0
  7 20  1  0
  8 21  1  1
  9 22  1  0
  9 23  1  0
 11 24  1  0
 11 25  1  0
 12 26  1  0
 13 27  1  0
 14 28  1  0
 14 29  1  0
M  END
$$$$
