
     RDKit          3D

 21 21  0  0  0  0  0  0  0  0999 V2000
    2.3134    0.7762   -1.2897 N   0  0  0  0  0  0  0  0  0  0  0  0
    2.2321   -0.3582   -0.4188 C   0  0  0  0  0  0  0  0  0  0  0  0
    3.2876   -0.9256   -0.0846 O   0  0  0  0  0  0  0  0  0  0  0  0
    0.9445   -0.8833    0.0999 C   0  0  1  0  0  0  0  0  0  0  0  0
    0.6521   -0.3290    1.4975 C   0  0  0  0  0  0  0  0  0  0  0  0
   -0.0060    0.7835    0.7350 C   0  0  0  0  0  0  0  0  0  0  0  0
   -0.1974   -0.1420   -0.3619 N   0  0  0  0  0  0  0  0  0  0  0  0
   -1.4253   -0.8940   -0.2615 C   0  0  0  0  0  0  0  0  0  0  0  0
   -2.5896    0.0108   -0.4527 C   0  0  0  0  0  0  0  0  0  0  0  0
   -3.7804   -0.4180   -0.4086 O   0  0  0  0  0  0  0  0  0  0  0  0
   -2.3620    1.3636   -0.6856 O   0  0  0  0  0  0  0  0  0  0  0  0
    1.7061    0.8959   -2.1244 H   0  0  0  0  0  0  0  0  0  0  0  0
    3.0270    1.5101   -1.0556 H   0  0  0  0  0  0  0  0  0  0  0  0
    0.8773   -1.9716    0.0836 H   0  0  0  0  0  0  0  0  0  0  0  0
   -0.0628   -0.9165    2.0698 H   0  0  0  0  0  0  0  0  0  0  0  0
    1.6051   -0.0739    1.9962 H   0  0  0  0  0  0  0  0  0  0  0  0
    0.7128    1.5824    0.5006 H   0  0  0  0  0  0  0  0  0  0  0  0
   -0.9396    1.1909    1.1699 H   0  0  0  0  0  0  0  0  0  0  0  0
   -1.4905   -1.4310    0.7094 H   0  0  0  0  0  0  0  0  0  0  0  0
   -1.4838   -1.6580   -1.0511 H   0  0  0  0  0  0  0  0  0  0  0  0
   -3.0206    1.8876   -1.2811 H   0  0  0  0  0  0  0  0  0  0  0  0
  1  2  1  0
  2  3  2  0
  2  4  1  0
  4  5  1  0
  5  6  1  0
  6  7  1  0
  7  8  1  0
  8  9  1  0
  9 10  2  0
  9 11  1  0
  7  4  1  0
  1 12  1  0
  1 13  1  0
  4 14  1  1
  5 15  1  0
  5 16  1  0
  6 17  1  0
  6 18  1  0
  8 19  1  0
  8 20  1  0
 11 21  1  0
M  END
$$$$

     RDKit          3D

 21 21  0  0  0  0  0  0  0  0999 V2000
   -2.2571    1.9860   -0.2295 N   0  0  0  0  0  0  0  0  0  0  0  0
   -1.8907    0.6419   -0.4787 C   0  0  0  0  0  0  0  0  0  0  0  0
   -2.2808    0.1291   -1.5653 O   0  0  0  0  0  0  0  0  0  0  0  0
   -1.0931   -0.0399    0.5427 C   0  0  1  0  0  0  0  0  0  0  0  0
   -0.9272   -1.5202    0.4458 C   0  0  0  0  0  0  0  0  0  0  0  0
    0.4464   -1.2149    1.0619 C   0  0  0  0  0  0  0  0  0  0  0  0
    0.3385    0.0907    0.4566 N   0  0  0  0  0  0  0  0  0  0  0  0
    0.9315    0.2792   -0.8258 C   0  0  0  0  0  0  0  0  0  0  0  0
    2.4114    0.2508   -0.7380 C   0  0  0  0  0  0  0  0  0  0  0  0
    3.1594    0.4346   -1.7372 O   0  0  0  0  0  0  0  0  0  0  0  0
    2.9861    0.0104    0.5034 O   0  0  0  0  0  0  0  0  0  0  0  0
   -3.2158    2.2026    0.0576 H   0  0  0  0  0  0  0  0  0  0  0  0
   -1.5562    2.7231   -0.3430 H   0  0  0  0  0  0  0  0  0  0  0  0
   -1.4334    0.2526    1.5756 H   0  0  0  0  0  0  0  0  0  0  0  0
   -0.8198   -1.9474   -0.5551 H   0  0  0  0  0  0  0  0  0  0  0  0
   -1.5860   -2.1267    1.1497 H   0  0  0  0  0  0  0  0  0  0  0  0
    1.2392   -1.8798    0.7267 H   0  0  0  0  0  0  0  0  0  0  0  0
    0.3192   -1.1405    2.1649 H   0  0  0  0  0  0  0  0  0  0  0  0
    0.6132    1.2490   -1.2590 H   0  0  0  0  0  0  0  0  0  0  0  0
    0.6140   -0.5133   -1.5685 H   0  0  0  0  0  0  0  0  0  0  0  0
    4.0010    0.1327    0.6152 H   0  0  0  0  0  0  0  0  0  0  0  0
  1  2  1  0
  2  3  2  0
  2  4  1  0
  4  5  1  0
  5  6  1  0
  6  7  1  0
  7  8  1  0
  8  9  1  0
  9 10  2  0
  9 11  1  0
  7  4  1  0
  1 12  1  0
  1 13  1  0
  4 14  1  1
  5 15  1  0
  5 16  1  0
  6 17  1  0
  6 18  1  0
  8 19  1  0
  8 20  1  0
 11 21  1  0
M  END
$$$$

     RDKit          3D

 21 21  0  0  0  0  0  0  0  0999 V2000
   -3.2308    0.8802   -0.0848 N   0  0  0  0  0  0  0  0  0  0  0  0
   -1.9064    0.7970   -0.6020 C   0  0  0  0  0  0  0  0  0  0  0  0
   -1.5964    1.3361   -1.6733 O   0  0  0  0  0  0  0  0  0  0  0  0
   -0.9045    0.0404    0.1870 C   0  0  1  0  0  0  0  0  0  0  0  0
   -1.0014   -1.4381   -0.0291 C   0  0  0  0  0  0  0  0  0  0  0  0
    0.5023   -1.3766   -0.2032 C   0  0  0  0  0  0  0  0  0  0  0  0
    0.3991    0.0328   -0.4505 N   0  0  0  0  0  0  0  0  0  0  0  0
    1.3194    0.8664    0.2786 C   0  0  0  0  0  0  0  0  0  0  0  0
    2.7302    0.6561   -0.1811 C   0  0  0  0  0  0  0  0  0  0  0  0
    3.6520    1.3075    0.3599 O   0  0  0  0  0  0  0  0  0  0  0  0
    3.0503   -0.2263   -1.1759 O   0  0  0  0  0  0  0  0  0  0  0  0
   -3.5951    0.2914    0.6726 H   0  0  0  0  0  0  0  0  0  0  0  0
   -3.8900    1.5844   -0.4939 H   0  0  0  0  0  0  0  0  0  0  0  0
   -0.8920    0.2861    1.2682 H   0  0  0  0  0  0  0  0  0  0  0  0
   -1.5547   -1.6926   -0.9433 H   0  0  0  0  0  0  0  0  0  0  0  0
   -1.2875   -2.0166    0.8727 H   0  0  0  0  0  0  0  0  0  0  0  0
    1.0904   -1.6898    0.6824 H   0  0  0  0  0  0  0  0  0  0  0  0
    0.8455   -1.9076   -1.1323 H   0  0  0  0  0  0  0  0  0  0  0  0
    1.0046    1.9240    0.1908 H   0  0  0  0  0  0  0  0  0  0  0  0
    1.2434    0.6074    1.3569 H   0  0  0  0  0  0  0  0  0  0  0  0
    4.0215   -0.2623   -1.5156 H   0  0  0  0  0  0  0  0  0  0  0  0
  1  2  1  0
  2  3  2  0
  2  4  1  0
  4  5  1  0
  5  6  1  0
  6  7  1  0
  7  8  1  0
  8  9  1  0
  9 10  2  0
  9 11  1  0
  7  4  1  0
  1 12  1  0
  1 13  1  0
  4 14  1  1
  5 15  1  0
  5 16  1  0
  6 17  1  0
  6 18  1  0
  8 19  1  0
  8 20  1  0
 11 21  1  0
M  END
$$$$

     RDKit          3D

 21 21  0  0  0  0  0  0  0  0999 V2000
    2.8639   -0.7850    1.0893 N   0  0  0  0  0  0  0  0  0  0  0  0
    1.8744   -0.5909    0.0976 C   0  0  0  0  0  0  0  0  0  0  0  0
    2.0544   -1.0878   -1.0407 O   0  0  0  0  0  0  0  0  0  0  0  0
    0.6235    0.1772    0.3350 C   0  0  1  0  0  0  0  0  0  0  0  0
    0.8620    1.6876    0.2087 C   0  0  0  0  0  0  0  0  0  0  0  0
   -0.4577    1.6356   -0.5489 C   0  0  0  0  0  0  0  0  0  0  0  0
   -0.2143    0.2645   -0.7960 N   0  0  0  0  0  0  0  0  0  0  0  0
   -1.2439   -0.6499   -1.0528 C   0  0  0  0  0  0  0  0  0  0  0  0
   -2.1744   -0.9699    0.0275 C   0  0  0  0  0  0  0  0  0  0  0  0
   -2.0606   -0.4178    1.1380 O   0  0  0  0  0  0  0  0  0  0  0  0
   -3.1995   -1.8832   -0.1412 O   0  0  0  0  0  0  0  0  0  0  0  0
    2.5687   -1.1074    2.0291 H   0  0  0  0  0  0  0  0  0  0  0  0
    3.8542   -0.5981    0.8444 H   0  0  0  0  0  0  0  0  0  0  0  0
    0.1961   -0.0182    1.3272 H   0  0  0  0  0  0  0  0  0  0  0  0
    0.8396    2.2293    1.1544 H   0  0  0  0  0  0  0  0  0  0  0  0
    1.7389    1.8898   -0.4305 H   0  0  0  0  0  0  0  0  0  0  0  0
   -0.3409    2.2642   -1.4747 H   0  0  0  0  0  0  0  0  0  0  0  0
   -1.3347    1.9044    0.0667 H   0  0  0  0  0  0  0  0  0  0  0  0
   -1.7947   -0.2848   -1.9742 H   0  0  0  0  0  0  0  0  0  0  0  0
   -0.7522   -1.5982   -1.4391 H   0  0  0  0  0  0  0  0  0  0  0  0
   -3.9028   -2.0614    0.5800 H   0  0  0  0  0  0  0  0  0  0  0  0
  1  2  1  0
  2  3  2  0
  2  4  1  0
  4  5  1  0
  5  6  1  0
  6  7  1  0
  7  8  1  0
  8  9  1  0
  9 10  2  0
  9 11  1  0
  7  4  1  0
  1 12  1  0
  1 13  1  0
  4 14  1  1
  5 15  1  0
  5 16  1  0
  6 17  1  0
  6 18  1  0
  8 19  1  0
  8 20  1  0
 11 21  1  0
M  END
$$$$

     RDKit          3D

 21 21  0  0  0  0  0  0  0  0999 V2000
   -3.0661    0.5025    0.8565 N   0  0  0  0  0  0  0  0  0  0  0  0
   -1.6462    0.5955    0.6197 C   0  0  0  0  0  0  0  0  0  0  0  0
   -1.1443    1.7291    0.7128 O   0  0  0  0  0  0  0  0  0  0  0  0
   -0.9488   -0.6452    0.2968 C   0  0  1  0  0  0  0  0  0  0  0  0
   -1.0950   -0.9199   -1.2134 C   0  0  0  0  0  0  0  0  0  0  0  0
    0.1857   -0.0919   -1.2489 C   0  0  0  0  0  0  0  0  0  0  0  0
    0.4458   -0.6046    0.0548 N   0  0  0  0  0  0  0  0  0  0  0  0
    1.3077    0.0811    0.9171 C   0  0  0  0  0  0  0  0  0  0  0  0
    2.6980    0.0177    0.3990 C   0  0  0  0  0  0  0  0  0  0  0  0
    2.9360   -0.6047   -0.6901 O   0  0  0  0  0  0  0  0  0  0  0  0
    3.7702    0.6200    1.0643 O   0  0  0  0  0  0  0  0  0  0  0  0
   -3.6572    1.1244    0.2713 H   0  0  0  0  0  0  0  0  0  0  0  0
   -3.4362   -0.1557    1.5751 H   0  0  0  0  0  0  0  0  0  0  0  0
   -1.2305   -1.5146    0.9220 H   0  0  0  0  0  0  0  0  0  0  0  0
   -1.9769   -0.4374   -1.6603 H   0  0  0  0  0  0  0  0  0  0  0  0
   -0.9382   -1.9843   -1.3838 H   0  0  0  0  0  0  0  0  0  0  0  0
   -0.0494    0.9743   -1.3207 H   0  0  0  0  0  0  0  0  0  0  0  0
    0.9000   -0.4150   -2.0359 H   0  0  0  0  0  0  0  0  0  0  0  0
    1.0861    1.1471    1.0910 H   0  0  0  0  0  0  0  0  0  0  0  0
    1.3225   -0.4376    1.9059 H   0  0  0  0  0  0  0  0  0  0  0  0
    4.5367    1.0193    0.5361 H   0  0  0  0  0  0  0  0  0  0  0  0
  1  2  1  0
  2  3  2  0
  2  4  1  0
  4  5  1  0
  5  6  1  0
  6  7  1  0
  7  8  1  0
  8  9  1  0
  9 10  2  0
  9 11  1  0
  7  4  1  0
  1 12  1  0
  1 13  1  0
  4 14  1  1
  5 15  1  0
  5 16  1  0
  6 17  1  0
  6 18  1  0
  8 19  1  0
  8 20  1  0
 11 21  1  0
M  END
$$$$

     RDKit          3D

 21 21  0  0  0  0  0  0  0  0999 V2000
   -1.4242    1.5955   -1.2348 N   0  0  0  0  0  0  0  0  0  0  0  0
   -1.4990    1.1760    0.1040 C   0  0  0  0  0  0  0  0  0  0  0  0
   -2.2795    1.7584    0.8864 O   0  0  0  0  0  0  0  0  0  0  0  0
   -0.6803    0.0516    0.6442 C   0  0  1  0  0  0  0  0  0  0  0  0
   -1.5218   -1.2028    0.6007 C   0  0  0  0  0  0  0  0  0  0  0  0
   -0.3250   -1.8513    0.0237 C   0  0  0  0  0  0  0  0  0  0  0  0
    0.2555   -0.5529   -0.2387 N   0  0  0  0  0  0  0  0  0  0  0  0
    1.6399   -0.5941    0.1962 C   0  0  0  0  0  0  0  0  0  0  0  0
    2.3268    0.6778   -0.0298 C   0  0  0  0  0  0  0  0  0  0  0  0
    3.5346    0.8841    0.2717 O   0  0  0  0  0  0  0  0  0  0  0  0
    1.6279    1.7246   -0.6056 O   0  0  0  0  0  0  0  0  0  0  0  0
   -2.0658    2.3410   -1.5668 H   0  0  0  0  0  0  0  0  0  0  0  0
   -0.7404    1.1694   -1.8843 H   0  0  0  0  0  0  0  0  0  0  0  0
   -0.3140    0.2243    1.6815 H   0  0  0  0  0  0  0  0  0  0  0  0
   -1.8431   -1.5479    1.6038 H   0  0  0  0  0  0  0  0  0  0  0  0
   -2.3775   -1.1408   -0.1299 H   0  0  0  0  0  0  0  0  0  0  0  0
   -0.4980   -2.4432   -0.9153 H   0  0  0  0  0  0  0  0  0  0  0  0
    0.2165   -2.4518    0.8101 H   0  0  0  0  0  0  0  0  0  0  0  0
    1.7477   -0.9736    1.2311 H   0  0  0  0  0  0  0  0  0  0  0  0
    2.1285   -1.3801   -0.4523 H   0  0  0  0  0  0  0  0  0  0  0  0
    2.0912    2.5358   -0.9959 H   0  0  0  0  0  0  0  0  0  0  0  0
  1  2  1  0
  2  3  2  0
  2  4  1  0
  4  5  1  0
  5  6  1  0
  6  7  1  0
  7  8  1  0
  8  9  1  0
  9 10  2  0
  9 11  1  0
  7  4  1  0
  1 12  1  0
  1 13  1  0
  4 14  1  1
  5 15  1  0
  5 16  1  0
  6 17  1  0
  6 18  1  0
  8 19  1  0
  8 20  1  0
 11 21  1  0
M  END
$$$$

     RDKit          3D

 21 21  0  0  0  0  0  0  0  0999 V2000
   -3.1143   -0.7573    1.0078 N   0  0  0  0  0  0  0  0  0  0  0  0
   -1.8324   -0.1388    1.0363 C   0  0  0  0  0  0  0  0  0  0  0  0
   -1.5283    0.5696    2.0169 O   0  0  0  0  0  0  0  0  0  0  0  0
   -0.8732   -0.3186   -0.0576 C   0  0  1  0  0  0  0  0  0  0  0  0
   -1.0949    0.6310   -1.2389 C   0  0  0  0  0  0  0  0  0  0  0  0
    0.4213    0.6417   -1.2597 C   0  0  0  0  0  0  0  0  0  0  0  0
    0.3692    0.3888    0.1813 N   0  0  0  0  0  0  0  0  0  0  0  0
    1.3811   -0.5916    0.5745 C   0  0  0  0  0  0  0  0  0  0  0  0
    2.7239   -0.0252    0.4190 C   0  0  0  0  0  0  0  0  0  0  0  0
    3.7304   -0.7280    0.6871 O   0  0  0  0  0  0  0  0  0  0  0  0
    2.8903    1.2737   -0.0190 O   0  0  0  0  0  0  0  0  0  0  0  0
   -3.6469   -0.8942    1.8933 H   0  0  0  0  0  0  0  0  0  0  0  0
   -3.5365   -1.0816    0.1010 H   0  0  0  0  0  0  0  0  0  0  0  0
   -0.7486   -1.3664   -0.4003 H   0  0  0  0  0  0  0  0  0  0  0  0
   -1.5682    0.1780   -2.1112 H   0  0  0  0  0  0  0  0  0  0  0  0
   -1.5276    1.5947   -0.8756 H   0  0  0  0  0  0  0  0  0  0  0  0
    0.7893   -0.2256   -1.8383 H   0  0  0  0  0  0  0  0  0  0  0  0
    0.8691    1.6291   -1.5026 H   0  0  0  0  0  0  0  0  0  0  0  0
    1.2748   -1.4701   -0.0862 H   0  0  0  0  0  0  0  0  0  0  0  0
    1.1761   -0.9015    1.6169 H   0  0  0  0  0  0  0  0  0  0  0  0
    3.8452    1.5923   -0.1444 H   0  0  0  0  0  0  0  0  0  0  0  0
  1  2  1  0
  2  3  2  0
  2  4  1  0
  4  5  1  0
  5  6  1  0
  6  7  1  0
  7  8  1  0
  8  9  1  0
  9 10  2  0
  9 11  1  0
  7  4  1  0
  1 12  1  0
  1 13  1  0
  4 14  1  6
  5 15  1  0
  5 16  1  0
  6 17  1  0
  6 18  1  0
  8 19  1  0
  8 20  1  0
 11 21  1  0
M  END
$$$$

     RDKit          3D

 21 21  0  0  0  0  0  0  0  0999 V2000
   -1.6124    1.8073   -0.2730 N   0  0  0  0  0  0  0  0  0  0  0  0
   -1.5729    0.8728    0.7920 C   0  0  0  0  0  0  0  0  0  0  0  0
   -2.3677    1.0504    1.7482 O   0  0  0  0  0  0  0  0  0  0  0  0
   -0.6725   -0.2818    0.8543 C   0  0  1  0  0  0  0  0  0  0  0  0
   -1.4369   -1.5290    0.4342 C   0  0  0  0  0  0  0  0  0  0  0  0
   -0.1740   -1.8722   -0.2751 C   0  0  0  0  0  0  0  0  0  0  0  0
    0.2389   -0.4809   -0.2237 N   0  0  0  0  0  0  0  0  0  0  0  0
    1.6427   -0.4232    0.1009 C   0  0  0  0  0  0  0  0  0  0  0  0
    2.1979    0.9270    0.1846 C   0  0  0  0  0  0  0  0  0  0  0  0
    3.4219    1.0326    0.4677 O   0  0  0  0  0  0  0  0  0  0  0  0
    1.5071    2.1070   -0.0180 O   0  0  0  0  0  0  0  0  0  0  0  0
   -2.0507    1.6287   -1.2005 H   0  0  0  0  0  0  0  0  0  0  0  0
   -1.1749    2.7422   -0.1286 H   0  0  0  0  0  0  0  0  0  0  0  0
   -0.1780   -0.3779    1.8427 H   0  0  0  0  0  0  0  0  0  0  0  0
   -2.2418   -1.2920   -0.2893 H   0  0  0  0  0  0  0  0  0  0  0  0
   -1.7268   -2.1922    1.2735 H   0  0  0  0  0  0  0  0  0  0  0  0
   -0.3000   -2.2620   -1.3043 H   0  0  0  0  0  0  0  0  0  0  0  0
    0.4605   -2.5283    0.3664 H   0  0  0  0  0  0  0  0  0  0  0  0
    1.8599   -0.9704    1.0461 H   0  0  0  0  0  0  0  0  0  0  0  0
    2.2357   -0.9734   -0.6869 H   0  0  0  0  0  0  0  0  0  0  0  0
    1.9439    3.0153   -0.0777 H   0  0  0  0  0  0  0  0  0  0  0  0
  1  2  1  0
  2  3  2  0
  2  4  1  0
  4  5  1  0
  5  6  1  0
  6  7  1  0
  7  8  1  0
  8  9  1  0
  9 10  2  0
  9 11  1  0
  7  4  1  0
  1 12  1  0
  1 13  1  0
  4 14  1  1
  5 15  1  0
  5 16  1  0
  6 17  1  0
  6 18  1  0
  8 19  1  0
  8 20  1  0
 11 21  1  0
M  END
$$$$
