
     RDKit          3D

 25 24  0  0  0  0  0  0  0  0999 V2000
   -3.0529    0.7634    0.9189 N   0  0  0  0  0  0  0  0  0  0  0  0
   -2.4076    0.5387   -0.3455 C   0  0  1  0  0  0  0  0  0  0  0  0
   -0.9184    0.8579   -0.2197 C   0  0  0  0  0  0  0  0  0  0  0  0
   -0.3384    0.0555    0.7283 O   0  0  0  0  0  0  0  0  0  0  0  0
    1.0079    0.2905    0.9167 C   0  0  0  0  0  0  0  0  0  0  0  0
    1.8484    0.0836   -0.2920 C   0  0  2  0  0  0  0  0  0  0  0  0
    1.7745   -1.2606   -0.8168 N   0  0  0  0  0  0  0  0  0  0  0  0
    3.2729    0.3765    0.1054 C   0  0  0  0  0  0  0  0  0  0  0  0
    4.1880   -0.4745   -0.0336 O   0  0  0  0  0  0  0  0  0  0  0  0
    3.5297    1.6398    0.6363 O   0  0  0  0  0  0  0  0  0  0  0  0
   -2.5773   -0.8727   -0.7612 C   0  0  0  0  0  0  0  0  0  0  0  0
   -2.0703   -1.2372   -1.8500 O   0  0  0  0  0  0  0  0  0  0  0  0
   -3.2656   -1.7945   -0.0035 O   0  0  0  0  0  0  0  0  0  0  0  0
   -3.7332    0.0174    1.1575 H   0  0  0  0  0  0  0  0  0  0  0  0
   -2.3630    0.9163    1.7059 H   0  0  0  0  0  0  0  0  0  0  0  0
   -2.8109    1.2495   -1.1011 H   0  0  0  0  0  0  0  0  0  0  0  0
   -0.8372    1.9453   -0.0058 H   0  0  0  0  0  0  0  0  0  0  0  0
   -0.4197    0.6668   -1.2000 H   0  0  0  0  0  0  0  0  0  0  0  0
    1.4039   -0.2485    1.8145 H   0  0  0  0  0  0  0  0  0  0  0  0
    1.0947    1.3740    1.1917 H   0  0  0  0  0  0  0  0  0  0  0  0
    1.5728    0.8250   -1.0625 H   0  0  0  0  0  0  0  0  0  0  0  0
    1.8611   -1.2457   -1.8614 H   0  0  0  0  0  0  0  0  0  0  0  0
    2.5402   -1.8572   -0.4391 H   0  0  0  0  0  0  0  0  0  0  0  0
    4.3459    1.7654    1.2083 H   0  0  0  0  0  0  0  0  0  0  0  0
   -3.6456   -2.6466   -0.3913 H   0  0  0  0  0  0  0  0  0  0  0  0
  1  2  1  0
  2  3  1  0
  3  4  1  0
  4  5  1  0
  5  6  1  0
  6  7  1  0
  6  8  1  0
  8  9  2  0
  8 10  1  0
  2 11  1  0
 11 12  2  0
 11 13  1  0
  1 14  1  0
  1 15  1  0
  2 16  1  6
  3 17  1  0
  3 18  1  0
  5 19  1  0
  5 20  1  0
  6 21  1  6
  7 22  1  0
  7 23  1  0
 10 24  1  0
 13 25  1  0
M  END
$$$$

     RDKit          3D

 25 24  0  0  0  0  0  0  0  0999 V2000
    2.5442   -1.4598    0.4735 N   0  0  0  0  0  0  0  0  0  0  0  0
    2.4102   -0.1408   -0.0983 C   0  0  1  0  0  0  0  0  0  0  0  0
    0.9607    0.3117   -0.1347 C   0  0  0  0  0  0  0  0  0  0  0  0
    0.1767   -0.5354   -0.8866 O   0  0  0  0  0  0  0  0  0  0  0  0
   -1.1391   -0.1903   -0.9635 C   0  0  0  0  0  0  0  0  0  0  0  0
   -1.8453   -0.1353    0.3678 C   0  0  2  0  0  0  0  0  0  0  0  0
   -1.8038   -1.4053    1.0184 N   0  0  0  0  0  0  0  0  0  0  0  0
   -3.2483    0.2588    0.1116 C   0  0  0  0  0  0  0  0  0  0  0  0
   -4.1655   -0.5099    0.4685 O   0  0  0  0  0  0  0  0  0  0  0  0
   -3.5933    1.4520   -0.5116 O   0  0  0  0  0  0  0  0  0  0  0  0
    3.2538    0.8055    0.6715 C   0  0  0  0  0  0  0  0  0  0  0  0
    3.9375    0.4320    1.6449 O   0  0  0  0  0  0  0  0  0  0  0  0
    3.2747    2.1372    0.2895 O   0  0  0  0  0  0  0  0  0  0  0  0
    1.6818   -1.7021    1.0052 H   0  0  0  0  0  0  0  0  0  0  0  0
    2.7910   -2.1872   -0.2099 H   0  0  0  0  0  0  0  0  0  0  0  0
    2.8393   -0.1740   -1.1279 H   0  0  0  0  0  0  0  0  0  0  0  0
    0.9650    1.3539   -0.5078 H   0  0  0  0  0  0  0  0  0  0  0  0
    0.5956    0.2639    0.9166 H   0  0  0  0  0  0  0  0  0  0  0  0
   -1.6633   -0.9578   -1.5716 H   0  0  0  0  0  0  0  0  0  0  0  0
   -1.3077    0.7777   -1.5161 H   0  0  0  0  0  0  0  0  0  0  0  0
   -1.4165    0.6185    1.0533 H   0  0  0  0  0  0  0  0  0  0  0  0
   -2.7258   -1.7000    1.3967 H   0  0  0  0  0  0  0  0  0  0  0  0
   -1.4790   -2.1541    0.3639 H   0  0  0  0  0  0  0  0  0  0  0  0
   -4.4326    1.9678   -0.2288 H   0  0  0  0  0  0  0  0  0  0  0  0
    3.3895    2.8728    0.9983 H   0  0  0  0  0  0  0  0  0  0  0  0
  1  2  1  0
  2  3  1  0
  3  4  1  0
  4  5  1  0
  5  6  1  0
  6  7  1  0
  6  8  1  0
  8  9  2  0
  8 10  1  0
  2 11  1  0
 11 12  2  0
 11 13  1  0
  1 14  1  0
  1 15  1  0
  2 16  1  6
  3 17  1  0
  3 18  1  0
  5 19  1  0
  5 20  1  0
  6 21  1  1
  7 22  1  0
  7 23  1  0
 10 24  1  0
 13 25  1  0
M  END
$$$$

     RDKit          3D

 25 24  0  0  0  0  0  0  0  0999 V2000
   -3.0275   -0.3669   -0.9987 N   0  0  0  0  0  0  0  0  0  0  0  0
   -2.2078   -0.2192    0.1337 C   0  0  1  0  0  0  0  0  0  0  0  0
   -0.8149   -0.7613   -0.1468 C   0  0  0  0  0  0  0  0  0  0  0  0
    0.0104   -0.6243    0.9472 O   0  0  0  0  0  0  0  0  0  0  0  0
    1.2525   -1.1547    0.6761 C   0  0  0  0  0  0  0  0  0  0  0  0
    1.9626   -0.4819   -0.4652 C   0  0  2  0  0  0  0  0  0  0  0  0
    3.2641   -1.1785   -0.5979 N   0  0  0  0  0  0  0  0  0  0  0  0
    2.1695    0.9503   -0.2239 C   0  0  0  0  0  0  0  0  0  0  0  0
    3.3275    1.4169   -0.1515 O   0  0  0  0  0  0  0  0  0  0  0  0
    1.0794    1.7850   -0.0765 O   0  0  0  0  0  0  0  0  0  0  0  0
   -2.1885    1.2054    0.5463 C   0  0  0  0  0  0  0  0  0  0  0  0
   -1.5419    1.6018    1.5494 O   0  0  0  0  0  0  0  0  0  0  0  0
   -2.9055    2.1720   -0.1849 O   0  0  0  0  0  0  0  0  0  0  0  0
   -2.6399   -0.0809   -1.9065 H   0  0  0  0  0  0  0  0  0  0  0  0
   -3.6759   -1.1634   -1.0154 H   0  0  0  0  0  0  0  0  0  0  0  0
   -2.6201   -0.8100    0.9729 H   0  0  0  0  0  0  0  0  0  0  0  0
   -0.4659   -0.2485   -1.0640 H   0  0  0  0  0  0  0  0  0  0  0  0
   -0.9415   -1.8412   -0.3563 H   0  0  0  0  0  0  0  0  0  0  0  0
    1.9103   -1.1571    1.5948 H   0  0  0  0  0  0  0  0  0  0  0  0
    1.1282   -2.2443    0.4240 H   0  0  0  0  0  0  0  0  0  0  0  0
    1.4410   -0.6334   -1.4192 H   0  0  0  0  0  0  0  0  0  0  0  0
    3.8465   -0.7041   -1.3338 H   0  0  0  0  0  0  0  0  0  0  0  0
    3.6981   -1.2034    0.3312 H   0  0  0  0  0  0  0  0  0  0  0  0
    1.2092    2.7578    0.2028 H   0  0  0  0  0  0  0  0  0  0  0  0
   -3.2699    2.9837    0.2969 H   0  0  0  0  0  0  0  0  0  0  0  0
  1  2  1  0
  2  3  1  0
  3  4  1  0
  4  5  1  0
  5  6  1  0
  6  7  1  0
  6  8  1  0
  8  9  2  0
  8 10  1  0
  2 11  1  0
 11 12  2  0
 11 13  1  0
  1 14  1  0
  1 15  1  0
  2 16  1  1
  3 17  1  0
  3 18  1  0
  5 19  1  0
  5 20  1  0
  6 21  1  6
  7 22  1  0
  7 23  1  0
 10 24  1  0
 13 25  1  0
M  END
$$$$

     RDKit          3D

 25 24  0  0  0  0  0  0  0  0999 V2000
   -2.2098   -0.0636    1.7862 N   0  0  0  0  0  0  0  0  0  0  0  0
   -2.3003    0.5496    0.4772 C   0  0  1  0  0  0  0  0  0  0  0  0
   -1.1120    0.1920   -0.4009 C   0  0  0  0  0  0  0  0  0  0  0  0
    0.0827    0.6071    0.1568 O   0  0  0  0  0  0  0  0  0  0  0  0
    1.1049    0.2493   -0.6920 C   0  0  0  0  0  0  0  0  0  0  0  0
    2.4713    0.6582   -0.1764 C   0  0  2  0  0  0  0  0  0  0  0  0
    3.4388    0.2210   -1.1640 N   0  0  0  0  0  0  0  0  0  0  0  0
    2.7899   -0.0353    1.0958 C   0  0  0  0  0  0  0  0  0  0  0  0
    2.0914    0.1733    2.1192 O   0  0  0  0  0  0  0  0  0  0  0  0
    3.8507   -0.9208    1.1940 O   0  0  0  0  0  0  0  0  0  0  0  0
   -3.5413    0.0869   -0.1739 C   0  0  0  0  0  0  0  0  0  0  0  0
   -3.7994    0.5116   -1.3259 O   0  0  0  0  0  0  0  0  0  0  0  0
   -4.4090   -0.7951    0.4606 O   0  0  0  0  0  0  0  0  0  0  0  0
   -1.3278   -0.6158    1.8344 H   0  0  0  0  0  0  0  0  0  0  0  0
   -3.0274   -0.6932    1.9807 H   0  0  0  0  0  0  0  0  0  0  0  0
   -2.2813    1.6426    0.6182 H   0  0  0  0  0  0  0  0  0  0  0  0
   -1.3105    0.6155   -1.4018 H   0  0  0  0  0  0  0  0  0  0  0  0
   -1.1515   -0.9246   -0.5223 H   0  0  0  0  0  0  0  0  0  0  0  0
    1.1174   -0.8614   -0.7735 H   0  0  0  0  0  0  0  0  0  0  0  0
    0.9219    0.6888   -1.6925 H   0  0  0  0  0  0  0  0  0  0  0  0
    2.5236    1.7662   -0.0292 H   0  0  0  0  0  0  0  0  0  0  0  0
    3.6098   -0.8078   -0.9512 H   0  0  0  0  0  0  0  0  0  0  0  0
    3.0874    0.2904   -2.1277 H   0  0  0  0  0  0  0  0  0  0  0  0
    4.3413   -1.0953    2.0705 H   0  0  0  0  0  0  0  0  0  0  0  0
   -4.9609   -1.4396   -0.0908 H   0  0  0  0  0  0  0  0  0  0  0  0
  1  2  1  0
  2  3  1  0
  3  4  1  0
  4  5  1  0
  5  6  1  0
  6  7  1  0
  6  8  1  0
  8  9  2  0
  8 10  1  0
  2 11  1  0
 11 12  2  0
 11 13  1  0
  1 14  1  0
  1 15  1  0
  2 16  1  1
  3 17  1  0
  3 18  1  0
  5 19  1  0
  5 20  1  0
  6 21  1  1
  7 22  1  0
  7 23  1  0
 10 24  1  0
 13 25  1  0
M  END
$$$$

     RDKit          3D

 25 24  0  0  0  0  0  0  0  0999 V2000
   -2.6864    1.3435    1.0281 N   0  0  0  0  0  0  0  0  0  0  0  0
   -2.4325    0.5636   -0.1592 C   0  0  1  0  0  0  0  0  0  0  0  0
   -1.1971   -0.2690    0.0582 C   0  0  0  0  0  0  0  0  0  0  0  0
   -0.0668    0.5017    0.3194 O   0  0  0  0  0  0  0  0  0  0  0  0
    0.9919   -0.3938    0.4983 C   0  0  0  0  0  0  0  0  0  0  0  0
    2.2922    0.3574    0.7931 C   0  0  2  0  0  0  0  0  0  0  0  0
    2.5748    1.2196   -0.3242 N   0  0  0  0  0  0  0  0  0  0  0  0
    3.3441   -0.6528    1.0117 C   0  0  0  0  0  0  0  0  0  0  0  0
    3.2191   -1.4656    1.9540 O   0  0  0  0  0  0  0  0  0  0  0  0
    4.4606   -0.7200    0.2005 O   0  0  0  0  0  0  0  0  0  0  0  0
   -3.5497   -0.3733   -0.4562 C   0  0  0  0  0  0  0  0  0  0  0  0
   -4.5789   -0.4806    0.2259 O   0  0  0  0  0  0  0  0  0  0  0  0
   -3.3982   -1.1744   -1.5894 O   0  0  0  0  0  0  0  0  0  0  0  0
   -2.1649    2.2520    0.9148 H   0  0  0  0  0  0  0  0  0  0  0  0
   -3.6987    1.6055    1.0565 H   0  0  0  0  0  0  0  0  0  0  0  0
   -2.2691    1.2440   -1.0140 H   0  0  0  0  0  0  0  0  0  0  0  0
   -1.0320   -0.9204   -0.8150 H   0  0  0  0  0  0  0  0  0  0  0  0
   -1.3376   -0.9252    0.9532 H   0  0  0  0  0  0  0  0  0  0  0  0
    0.7828   -1.0435    1.3602 H   0  0  0  0  0  0  0  0  0  0  0  0
    1.1300   -1.0186   -0.4044 H   0  0  0  0  0  0  0  0  0  0  0  0
    2.1932    0.9823    1.6863 H   0  0  0  0  0  0  0  0  0  0  0  0
    3.1531    0.7610   -1.0471 H   0  0  0  0  0  0  0  0  0  0  0  0
    2.9344    2.1398   -0.0147 H   0  0  0  0  0  0  0  0  0  0  0  0
    5.1666   -1.4507    0.2833 H   0  0  0  0  0  0  0  0  0  0  0  0
   -3.8307   -2.0827   -1.6677 H   0  0  0  0  0  0  0  0  0  0  0  0
  1  2  1  0
  2  3  1  0
  3  4  1  0
  4  5  1  0
  5  6  1  0
  6  7  1  0
  6  8  1  0
  8  9  2  0
  8 10  1  0
  2 11  1  0
 11 12  2  0
 11 13  1  0
  1 14  1  0
  1 15  1  0
  2 16  1  6
  3 17  1  0
  3 18  1  0
  5 19  1  0
  5 20  1  0
  6 21  1  1
  7 22  1  0
  7 23  1  0
 10 24  1  0
 13 25  1  0
M  END
$$$$

     RDKit          3D

 25 24  0  0  0  0  0  0  0  0999 V2000
   -1.6908   -1.3587    0.4321 N   0  0  0  0  0  0  0  0  0  0  0  0
   -1.8334    0.0092   -0.0020 C   0  0  1  0  0  0  0  0  0  0  0  0
   -1.1574    0.2021   -1.3325 C   0  0  0  0  0  0  0  0  0  0  0  0
    0.1773   -0.1141   -1.2322 O   0  0  0  0  0  0  0  0  0  0  0  0
    0.9265    0.6192   -0.3507 C   0  0  0  0  0  0  0  0  0  0  0  0
    2.3607    0.0884   -0.4673 C   0  0  2  0  0  0  0  0  0  0  0  0
    2.3612   -1.3065   -0.1264 N   0  0  0  0  0  0  0  0  0  0  0  0
    3.2101    0.8893    0.4214 C   0  0  0  0  0  0  0  0  0  0  0  0
    3.2911    2.1232    0.2234 O   0  0  0  0  0  0  0  0  0  0  0  0
    3.9032    0.2671    1.4581 O   0  0  0  0  0  0  0  0  0  0  0  0
   -3.2780    0.3970   -0.0720 C   0  0  0  0  0  0  0  0  0  0  0  0
   -3.5910    1.5587   -0.4334 O   0  0  0  0  0  0  0  0  0  0  0  0
   -4.2969   -0.4785    0.2478 O   0  0  0  0  0  0  0  0  0  0  0  0
   -1.1082   -1.9348   -0.2159 H   0  0  0  0  0  0  0  0  0  0  0  0
   -2.6022   -1.8087    0.6626 H   0  0  0  0  0  0  0  0  0  0  0  0
   -1.3666    0.6657    0.7364 H   0  0  0  0  0  0  0  0  0  0  0  0
   -1.6253   -0.4595   -2.1007 H   0  0  0  0  0  0  0  0  0  0  0  0
   -1.3008    1.2692   -1.6661 H   0  0  0  0  0  0  0  0  0  0  0  0
    0.5867    0.4809    0.7112 H   0  0  0  0  0  0  0  0  0  0  0  0
    0.9042    1.7046   -0.5533 H   0  0  0  0  0  0  0  0  0  0  0  0
    2.6347    0.1844   -1.5377 H   0  0  0  0  0  0  0  0  0  0  0  0
    2.3766   -1.4556    0.9167 H   0  0  0  0  0  0  0  0  0  0  0  0
    1.5262   -1.7684   -0.5449 H   0  0  0  0  0  0  0  0  0  0  0  0
    4.8034    0.6759    1.7514 H   0  0  0  0  0  0  0  0  0  0  0  0
   -5.2115   -0.4501   -0.2112 H   0  0  0  0  0  0  0  0  0  0  0  0
  1  2  1  0
  2  3  1  0
  3  4  1  0
  4  5  1  0
  5  6  1  0
  6  7  1  0
  6  8  1  0
  8  9  2  0
  8 10  1  0
  2 11  1  0
 11 12  2  0
 11 13  1  0
  1 14  1  0
  1 15  1  0
  2 16  1  1
  3 17  1  0
  3 18  1  0
  5 19  1  0
  5 20  1  0
  6 21  1  6
  7 22  1  0
  7 23  1  0
 10 24  1  0
 13 25  1  0
M  END
$$$$

     RDKit          3D

 25 24  0  0  0  0  0  0  0  0999 V2000
   -3.2683   -1.1579   -0.6673 N   0  0  0  0  0  0  0  0  0  0  0  0
   -2.0951   -0.3724   -0.2756 C   0  0  1  0  0  0  0  0  0  0  0  0
   -1.1347   -0.3748   -1.4146 C   0  0  0  0  0  0  0  0  0  0  0  0
    0.0013    0.3576   -1.1535 O   0  0  0  0  0  0  0  0  0  0  0  0
    0.6745   -0.1484   -0.0856 C   0  0  0  0  0  0  0  0  0  0  0  0
    1.9575    0.6094    0.2239 C   0  0  2  0  0  0  0  0  0  0  0  0
    2.8653    0.5770   -0.8828 N   0  0  0  0  0  0  0  0  0  0  0  0
    2.5307   -0.0248    1.4390 C   0  0  0  0  0  0  0  0  0  0  0  0
    1.8949   -0.0993    2.5175 O   0  0  0  0  0  0  0  0  0  0  0  0
    3.8081   -0.5607    1.4104 O   0  0  0  0  0  0  0  0  0  0  0  0
   -2.5130    1.0136    0.0022 C   0  0  0  0  0  0  0  0  0  0  0  0
   -3.7017    1.3353   -0.1142 O   0  0  0  0  0  0  0  0  0  0  0  0
   -1.5729    1.9419    0.3905 O   0  0  0  0  0  0  0  0  0  0  0  0
   -4.0342   -0.8611   -0.0065 H   0  0  0  0  0  0  0  0  0  0  0  0
   -3.1044   -2.1786   -0.5116 H   0  0  0  0  0  0  0  0  0  0  0  0
   -1.6860   -0.8779    0.6264 H   0  0  0  0  0  0  0  0  0  0  0  0
   -0.8175   -1.4336   -1.6062 H   0  0  0  0  0  0  0  0  0  0  0  0
   -1.6473   -0.0597   -2.3514 H   0  0  0  0  0  0  0  0  0  0  0  0
    0.9786   -1.1935   -0.3037 H   0  0  0  0  0  0  0  0  0  0  0  0
    0.1253   -0.1647    0.8789 H   0  0  0  0  0  0  0  0  0  0  0  0
    1.7117    1.6663    0.4385 H   0  0  0  0  0  0  0  0  0  0  0  0
    3.8030    0.8915   -0.5676 H   0  0  0  0  0  0  0  0  0  0  0  0
    2.9248   -0.4126   -1.2272 H   0  0  0  0  0  0  0  0  0  0  0  0
    4.1742   -1.2189    2.0668 H   0  0  0  0  0  0  0  0  0  0  0  0
   -1.8749    2.7461    0.9386 H   0  0  0  0  0  0  0  0  0  0  0  0
  1  2  1  0
  2  3  1  0
  3  4  1  0
  4  5  1  0
  5  6  1  0
  6  7  1  0
  6  8  1  0
  8  9  2  0
  8 10  1  0
  2 11  1  0
 11 12  2  0
 11 13  1  0
  1 14  1  0
  1 15  1  0
  2 16  1  1
  3 17  1  0
  3 18  1  0
  5 19  1  0
  5 20  1  0
  6 21  1  1
  7 22  1  0
  7 23  1  0
 10 24  1  0
 13 25  1  0
M  END
$$$$

     RDKit          3D

 25 24  0  0  0  0  0  0  0  0999 V2000
    2.1769   -1.7476   -0.1173 N   0  0  0  0  0  0  0  0  0  0  0  0
    2.2816   -0.3306   -0.3244 C   0  0  1  0  0  0  0  0  0  0  0  0
    1.1128    0.3577    0.3844 C   0  0  0  0  0  0  0  0  0  0  0  0
   -0.0408   -0.1342   -0.1675 O   0  0  0  0  0  0  0  0  0  0  0  0
   -1.2031    0.3772    0.3525 C   0  0  0  0  0  0  0  0  0  0  0  0
   -2.3618   -0.2916   -0.3885 C   0  0  2  0  0  0  0  0  0  0  0  0
   -2.2796   -0.0094   -1.8005 N   0  0  0  0  0  0  0  0  0  0  0  0
   -3.6361    0.2385    0.1404 C   0  0  0  0  0  0  0  0  0  0  0  0
   -4.4545    0.8293   -0.6090 O   0  0  0  0  0  0  0  0  0  0  0  0
   -3.9504    0.0868    1.4999 O   0  0  0  0  0  0  0  0  0  0  0  0
    3.5672    0.2037    0.1799 C   0  0  0  0  0  0  0  0  0  0  0  0
    4.3779   -0.6013    0.7041 O   0  0  0  0  0  0  0  0  0  0  0  0
    3.8420    1.5561    0.0642 O   0  0  0  0  0  0  0  0  0  0  0  0
    1.4058   -2.0251    0.5134 H   0  0  0  0  0  0  0  0  0  0  0  0
    3.0855   -2.1855    0.1757 H   0  0  0  0  0  0  0  0  0  0  0  0
    2.1573   -0.1173   -1.4119 H   0  0  0  0  0  0  0  0  0  0  0  0
    1.2338    1.4579    0.2064 H   0  0  0  0  0  0  0  0  0  0  0  0
    1.2203    0.1340    1.4748 H   0  0  0  0  0  0  0  0  0  0  0  0
   -1.2371    1.4720    0.1774 H   0  0  0  0  0  0  0  0  0  0  0  0
   -1.2387    0.1494    1.4298 H   0  0  0  0  0  0  0  0  0  0  0  0
   -2.3032   -1.3778   -0.2493 H   0  0  0  0  0  0  0  0  0  0  0  0
   -1.9928   -0.8547   -2.3340 H   0  0  0  0  0  0  0  0  0  0  0  0
   -1.5994    0.7879   -1.9667 H   0  0  0  0  0  0  0  0  0  0  0  0
   -4.9357    0.1071    1.7966 H   0  0  0  0  0  0  0  0  0  0  0  0
    4.7721    1.9172    0.2696 H   0  0  0  0  0  0  0  0  0  0  0  0
  1  2  1  0
  2  3  1  0
  3  4  1  0
  4  5  1  0
  5  6  1  0
  6  7  1  0
  6  8  1  0
  8  9  2  0
  8 10  1  0
  2 11  1  0
 11 12  2  0
 11 13  1  0
  1 14  1  0
  1 15  1  0
  2 16  1  6
  3 17  1  0
  3 18  1  0
  5 19  1  0
  5 20  1  0
  6 21  1  6
  7 22  1  0
  7 23  1  0
 10 24  1  0
 13 25  1  0
M  END
$$$$
