
     RDKit          3D

 17 16  0  0  0  0  0  0  0  0999 V2000
    2.9983   -0.8403    0.3865 O   0  0  0  0  0  0  0  0  0  0  0  0
    2.1944    0.0657    0.1226 C   0  0  0  0  0  0  0  0  0  0  0  0
    2.5231    1.3834    0.3444 O   0  0  0  0  0  0  0  0  0  0  0  0
    0.8502   -0.2281   -0.4389 C   0  0  0  0  0  0  0  0  0  0  0  0
   -0.1149    0.0752    0.6909 C   0  0  0  0  0  0  0  0  0  0  0  0
   -1.5478   -0.1345    0.3648 C   0  0  0  0  0  0  0  0  0  0  0  0
   -1.8599   -1.4385    0.0110 O   0  0  0  0  0  0  0  0  0  0  0  0
   -2.2591    0.1738    1.5506 O   0  0  0  0  0  0  0  0  0  0  0  0
   -2.0048    0.7345   -0.6208 O   0  0  0  0  0  0  0  0  0  0  0  0
    3.4949    1.6472    0.4355 H   0  0  0  0  0  0  0  0  0  0  0  0
    0.6949    0.4232   -1.3123 H   0  0  0  0  0  0  0  0  0  0  0  0
    0.8172   -1.2856   -0.7681 H   0  0  0  0  0  0  0  0  0  0  0  0
    0.2411   -0.4913    1.5667 H   0  0  0  0  0  0  0  0  0  0  0  0
    0.0600    1.1657    0.9278 H   0  0  0  0  0  0  0  0  0  0  0  0
   -1.6125   -1.6396   -0.9233 H   0  0  0  0  0  0  0  0  0  0  0  0
   -3.0613   -0.3634    1.6315 H   0  0  0  0  0  0  0  0  0  0  0  0
   -1.4139    0.7527   -1.4039 H   0  0  0  0  0  0  0  0  0  0  0  0
  1  2  2  0
  2  3  1  0
  2  4  1  0
  4  5  1  0
  5  6  1  0
  6  7  1  0
  6  8  1  0
  6  9  1  0
  3 10  1  0
  4 11  1  0
  4 12  1  0
  5 13  1  0
  5 14  1  0
  7 15  1  0
  8 16  1  0
  9 17  1  0
M  END
$$$$

     RDKit          3D

 17 16  0  0  0  0  0  0  0  0999 V2000
    2.4266    1.0176   -0.0769 O   0  0  0  0  0  0  0  0  0  0  0  0
    2.1594   -0.2065   -0.0375 C   0  0  0  0  0  0  0  0  0  0  0  0
    3.2133   -1.1090   -0.0331 O   0  0  0  0  0  0  0  0  0  0  0  0
    0.7375   -0.6122    0.0018 C   0  0  0  0  0  0  0  0  0  0  0  0
   -0.1421    0.5977   -0.0145 C   0  0  0  0  0  0  0  0  0  0  0  0
   -1.6062    0.2808    0.0226 C   0  0  0  0  0  0  0  0  0  0  0  0
   -2.2874    1.5195    0.0017 O   0  0  0  0  0  0  0  0  0  0  0  0
   -1.9072   -0.3329    1.2178 O   0  0  0  0  0  0  0  0  0  0  0  0
   -2.0451   -0.4206   -1.0845 O   0  0  0  0  0  0  0  0  0  0  0  0
    4.1262   -0.7558    0.2166 H   0  0  0  0  0  0  0  0  0  0  0  0
    0.6089   -1.1608    0.9818 H   0  0  0  0  0  0  0  0  0  0  0  0
    0.5004   -1.3395   -0.7880 H   0  0  0  0  0  0  0  0  0  0  0  0
    0.0447    1.2409   -0.8841 H   0  0  0  0  0  0  0  0  0  0  0  0
    0.0732    1.2176    0.8946 H   0  0  0  0  0  0  0  0  0  0  0  0
   -1.7698    2.0790   -0.6535 H   0  0  0  0  0  0  0  0  0  0  0  0
   -2.7032   -0.9172    1.1782 H   0  0  0  0  0  0  0  0  0  0  0  0
   -1.4291   -1.0986   -1.4113 H   0  0  0  0  0  0  0  0  0  0  0  0
  1  2  2  0
  2  3  1  0
  2  4  1  0
  4  5  1  0
  5  6  1  0
  6  7  1  0
  6  8  1  0
  6  9  1  0
  3 10  1  0
  4 11  1  0
  4 12  1  0
  5 13  1  0
  5 14  1  0
  7 15  1  0
  8 16  1  0
  9 17  1  0
M  END
$$$$

     RDKit          3D

 17 16  0  0  0  0  0  0  0  0999 V2000
   -3.2432   -0.3007   -1.0762 O   0  0  0  0  0  0  0  0  0  0  0  0
   -2.2663    0.0151   -0.3459 C   0  0  0  0  0  0  0  0  0  0  0  0
   -2.5169    0.7125    0.8393 O   0  0  0  0  0  0  0  0  0  0  0  0
   -0.8625   -0.3232   -0.6929 C   0  0  0  0  0  0  0  0  0  0  0  0
    0.0741    0.1816    0.3638 C   0  0  0  0  0  0  0  0  0  0  0  0
    1.5096   -0.1186    0.0895 C   0  0  0  0  0  0  0  0  0  0  0  0
    1.7841   -1.4631   -0.0123 O   0  0  0  0  0  0  0  0  0  0  0  0
    2.2569    0.3708    1.1722 O   0  0  0  0  0  0  0  0  0  0  0  0
    1.9424    0.5600   -1.0735 O   0  0  0  0  0  0  0  0  0  0  0  0
   -3.4555    1.0386    1.0105 H   0  0  0  0  0  0  0  0  0  0  0  0
   -0.6163    0.0354   -1.6913 H   0  0  0  0  0  0  0  0  0  0  0  0
   -0.7698   -1.4476   -0.7169 H   0  0  0  0  0  0  0  0  0  0  0  0
   -0.1974   -0.2150    1.3533 H   0  0  0  0  0  0  0  0  0  0  0  0
   -0.0202    1.3000    0.4364 H   0  0  0  0  0  0  0  0  0  0  0  0
    2.6153   -1.5915   -0.5434 H   0  0  0  0  0  0  0  0  0  0  0  0
    2.1058   -0.2598    1.9119 H   0  0  0  0  0  0  0  0  0  0  0  0
    1.6597    1.5055   -1.0245 H   0  0  0  0  0  0  0  0  0  0  0  0
  1  2  2  0
  2  3  1  0
  2  4  1  0
  4  5  1  0
  5  6  1  0
  6  7  1  0
  6  8  1  0
  6  9  1  0
  3 10  1  0
  4 11  1  0
  4 12  1  0
  5 13  1  0
  5 14  1  0
  7 15  1  0
  8 16  1  0
  9 17  1  0
M  END
$$$$

     RDKit          3D

 17 16  0  0  0  0  0  0  0  0999 V2000
    2.7910   -1.3877   -0.4920 O   0  0  0  0  0  0  0  0  0  0  0  0
    1.9318   -0.5131   -0.1398 C   0  0  0  0  0  0  0  0  0  0  0  0
    2.1232    0.7752   -0.5632 O   0  0  0  0  0  0  0  0  0  0  0  0
    0.8219   -0.9891    0.6923 C   0  0  0  0  0  0  0  0  0  0  0  0
   -0.2815   -0.0366    0.9622 C   0  0  0  0  0  0  0  0  0  0  0  0
   -1.0637    0.4366   -0.2258 C   0  0  0  0  0  0  0  0  0  0  0  0
   -2.0336    1.3152    0.2684 O   0  0  0  0  0  0  0  0  0  0  0  0
   -1.7252   -0.6827   -0.7777 O   0  0  0  0  0  0  0  0  0  0  0  0
   -0.2939    1.0632   -1.1874 O   0  0  0  0  0  0  0  0  0  0  0  0
    3.0544    1.2011   -0.5194 H   0  0  0  0  0  0  0  0  0  0  0  0
    1.2822   -1.3260    1.6767 H   0  0  0  0  0  0  0  0  0  0  0  0
    0.3561   -1.9106    0.2016 H   0  0  0  0  0  0  0  0  0  0  0  0
   -1.0222   -0.5570    1.6443 H   0  0  0  0  0  0  0  0  0  0  0  0
    0.0408    0.8573    1.5473 H   0  0  0  0  0  0  0  0  0  0  0  0
   -2.9320    1.1398   -0.0428 H   0  0  0  0  0  0  0  0  0  0  0  0
   -2.2543   -1.0576   -0.0285 H   0  0  0  0  0  0  0  0  0  0  0  0
   -0.7949    1.6718   -1.7707 H   0  0  0  0  0  0  0  0  0  0  0  0
  1  2  2  0
  2  3  1  0
  2  4  1  0
  4  5  1  0
  5  6  1  0
  6  7  1  0
  6  8  1  0
  6  9  1  0
  3 10  1  0
  4 11  1  0
  4 12  1  0
  5 13  1  0
  5 14  1  0
  7 15  1  0
  8 16  1  0
  9 17  1  0
M  END
$$$$

     RDKit          3D

 17 16  0  0  0  0  0  0  0  0999 V2000
    2.6503    1.6059    0.6382 O   0  0  0  0  0  0  0  0  0  0  0  0
    2.2003    0.5830    0.0014 C   0  0  0  0  0  0  0  0  0  0  0  0
    3.1161   -0.4515   -0.1861 O   0  0  0  0  0  0  0  0  0  0  0  0
    0.8114    0.5099   -0.4910 C   0  0  0  0  0  0  0  0  0  0  0  0
   -0.0820   -0.3687    0.3529 C   0  0  0  0  0  0  0  0  0  0  0  0
   -1.4934   -0.3886   -0.1975 C   0  0  0  0  0  0  0  0  0  0  0  0
   -2.0700    0.8826   -0.2193 O   0  0  0  0  0  0  0  0  0  0  0  0
   -1.4483   -0.8881   -1.5143 O   0  0  0  0  0  0  0  0  0  0  0  0
   -2.2660   -1.2147    0.5998 O   0  0  0  0  0  0  0  0  0  0  0  0
    4.0452   -0.4454    0.2226 H   0  0  0  0  0  0  0  0  0  0  0  0
    0.4016    1.5665   -0.4540 H   0  0  0  0  0  0  0  0  0  0  0  0
    0.7337    0.1202   -1.5303 H   0  0  0  0  0  0  0  0  0  0  0  0
   -0.0317   -0.0401    1.4089 H   0  0  0  0  0  0  0  0  0  0  0  0
    0.2781   -1.4228    0.2940 H   0  0  0  0  0  0  0  0  0  0  0  0
   -3.0106    0.7671    0.0414 H   0  0  0  0  0  0  0  0  0  0  0  0
   -1.2624   -0.0835   -2.0841 H   0  0  0  0  0  0  0  0  0  0  0  0
   -2.5724   -0.7318    1.4045 H   0  0  0  0  0  0  0  0  0  0  0  0
  1  2  2  0
  2  3  1  0
  2  4  1  0
  4  5  1  0
  5  6  1  0
  6  7  1  0
  6  8  1  0
  6  9  1  0
  3 10  1  0
  4 11  1  0
  4 12  1  0
  5 13  1  0
  5 14  1  0
  7 15  1  0
  8 16  1  0
  9 17  1  0
M  END
$$$$

     RDKit          3D

 17 16  0  0  0  0  0  0  0  0999 V2000
   -1.5589    0.2603    1.4174 O   0  0  0  0  0  0  0  0  0  0  0  0
   -1.8019   -0.0668    0.2498 C   0  0  0  0  0  0  0  0  0  0  0  0
   -3.1201    0.2504   -0.1677 O   0  0  0  0  0  0  0  0  0  0  0  0
   -0.8650   -0.7192   -0.6639 C   0  0  0  0  0  0  0  0  0  0  0  0
    0.5178   -0.8549   -0.1321 C   0  0  0  0  0  0  0  0  0  0  0  0
    1.2652    0.4047    0.1484 C   0  0  0  0  0  0  0  0  0  0  0  0
    2.5444   -0.0078    0.6276 O   0  0  0  0  0  0  0  0  0  0  0  0
    0.7415    1.1639    1.1695 O   0  0  0  0  0  0  0  0  0  0  0  0
    1.4435    1.1775   -1.0042 O   0  0  0  0  0  0  0  0  0  0  0  0
   -3.5202    1.1326    0.1792 H   0  0  0  0  0  0  0  0  0  0  0  0
   -1.2180   -1.7714   -0.9106 H   0  0  0  0  0  0  0  0  0  0  0  0
   -0.8459   -0.2288   -1.6685 H   0  0  0  0  0  0  0  0  0  0  0  0
    0.5341   -1.4820    0.7933 H   0  0  0  0  0  0  0  0  0  0  0  0
    1.1078   -1.3860   -0.9488 H   0  0  0  0  0  0  0  0  0  0  0  0
    2.9266   -0.6084   -0.0535 H   0  0  0  0  0  0  0  0  0  0  0  0
    1.0563    0.8085    2.0202 H   0  0  0  0  0  0  0  0  0  0  0  0
    0.7927    1.9273   -1.0561 H   0  0  0  0  0  0  0  0  0  0  0  0
  1  2  2  0
  2  3  1  0
  2  4  1  0
  4  5  1  0
  5  6  1  0
  6  7  1  0
  6  8  1  0
  6  9  1  0
  3 10  1  0
  4 11  1  0
  4 12  1  0
  5 13  1  0
  5 14  1  0
  7 15  1  0
  8 16  1  0
  9 17  1  0
M  END
$$$$

     RDKit          3D

 17 16  0  0  0  0  0  0  0  0999 V2000
    1.5497    0.6900    1.1637 O   0  0  0  0  0  0  0  0  0  0  0  0
    1.7869   -0.3221    0.4770 C   0  0  0  0  0  0  0  0  0  0  0  0
    2.9293   -1.0597    0.8466 O   0  0  0  0  0  0  0  0  0  0  0  0
    0.9303   -0.7096   -0.6365 C   0  0  0  0  0  0  0  0  0  0  0  0
   -0.2768    0.1053   -0.8965 C   0  0  0  0  0  0  0  0  0  0  0  0
   -1.3058    0.1792    0.1756 C   0  0  0  0  0  0  0  0  0  0  0  0
   -1.8218   -1.0736    0.5150 O   0  0  0  0  0  0  0  0  0  0  0  0
   -2.4057    0.8887   -0.4006 O   0  0  0  0  0  0  0  0  0  0  0  0
   -0.9763    0.8948    1.3027 O   0  0  0  0  0  0  0  0  0  0  0  0
    3.7668   -0.6083    1.2022 H   0  0  0  0  0  0  0  0  0  0  0  0
    0.7288   -1.8034   -0.5894 H   0  0  0  0  0  0  0  0  0  0  0  0
    1.5806   -0.6145   -1.5658 H   0  0  0  0  0  0  0  0  0  0  0  0
   -0.8270   -0.2942   -1.8046 H   0  0  0  0  0  0  0  0  0  0  0  0
    0.0269    1.1637   -1.1234 H   0  0  0  0  0  0  0  0  0  0  0  0
   -2.6163   -0.9498    1.1222 H   0  0  0  0  0  0  0  0  0  0  0  0
   -2.0090    1.6384   -0.9384 H   0  0  0  0  0  0  0  0  0  0  0  0
   -1.0607    1.8751    1.1503 H   0  0  0  0  0  0  0  0  0  0  0  0
  1  2  2  0
  2  3  1  0
  2  4  1  0
  4  5  1  0
  5  6  1  0
  6  7  1  0
  6  8  1  0
  6  9  1  0
  3 10  1  0
  4 11  1  0
  4 12  1  0
  5 13  1  0
  5 14  1  0
  7 15  1  0
  8 16  1  0
  9 17  1  0
M  END
$$$$

     RDKit          3D

 17 16  0  0  0  0  0  0  0  0999 V2000
    2.5850   -1.1244   -0.5755 O   0  0  0  0  0  0  0  0  0  0  0  0
    2.1847   -0.1814    0.1476 C   0  0  0  0  0  0  0  0  0  0  0  0
    2.9838    0.9299    0.3294 O   0  0  0  0  0  0  0  0  0  0  0  0
    0.8471   -0.3203    0.7726 C   0  0  0  0  0  0  0  0  0  0  0  0
   -0.1606   -0.0511   -0.3150 C   0  0  0  0  0  0  0  0  0  0  0  0
   -1.5819   -0.1630    0.1976 C   0  0  0  0  0  0  0  0  0  0  0  0
   -2.4135    0.1069   -0.8979 O   0  0  0  0  0  0  0  0  0  0  0  0
   -1.8857   -1.4332    0.6582 O   0  0  0  0  0  0  0  0  0  0  0  0
   -1.8704    0.7865    1.1726 O   0  0  0  0  0  0  0  0  0  0  0  0
    3.7257    1.1307   -0.3387 H   0  0  0  0  0  0  0  0  0  0  0  0
    0.7591    0.3424    1.6407 H   0  0  0  0  0  0  0  0  0  0  0  0
    0.7241   -1.3687    1.1112 H   0  0  0  0  0  0  0  0  0  0  0  0
   -0.0328    0.9247   -0.7820 H   0  0  0  0  0  0  0  0  0  0  0  0
   -0.0356   -0.8273   -1.0829 H   0  0  0  0  0  0  0  0  0  0  0  0
   -2.2291    1.0055   -1.2607 H   0  0  0  0  0  0  0  0  0  0  0  0
   -2.1354   -1.4091    1.6350 H   0  0  0  0  0  0  0  0  0  0  0  0
   -1.4643    1.6520    0.8726 H   0  0  0  0  0  0  0  0  0  0  0  0
  1  2  2  0
  2  3  1  0
  2  4  1  0
  4  5  1  0
  5  6  1  0
  6  7  1  0
  6  8  1  0
  6  9  1  0
  3 10  1  0
  4 11  1  0
  4 12  1  0
  5 13  1  0
  5 14  1  0
  7 15  1  0
  8 16  1  0
  9 17  1  0
M  END
$$$$
