
     RDKit          3D

 17 16  0  0  0  0  0  0  0  0999 V2000
    2.1693   -0.6877    0.6546 C   0  0  0  0  0  0  0  0  0  0  0  0
    1.8523    0.1093   -0.5877 C   0  0  0  0  0  0  0  0  0  0  0  0
    0.4800    0.1337   -0.8413 O   0  0  0  0  0  0  0  0  0  0  0  0
   -0.4792    0.6397    0.0001 C   0  0  0  0  0  0  0  0  0  0  0  0
   -0.1289    1.1315    1.1011 O   0  0  0  0  0  0  0  0  0  0  0  0
   -1.8917    0.5901   -0.4153 C   0  0  1  0  0  0  0  0  0  0  0  0
   -2.3253   -0.7792   -0.7041 N   0  0  0  0  0  0  0  0  0  0  0  0
   -2.6699    1.1510    0.5805 O   0  0  0  0  0  0  0  0  0  0  0  0
    1.3948   -0.6018    1.4287 H   0  0  0  0  0  0  0  0  0  0  0  0
    3.1701   -0.3460    1.0127 H   0  0  0  0  0  0  0  0  0  0  0  0
    2.3170   -1.7728    0.4075 H   0  0  0  0  0  0  0  0  0  0  0  0
    2.3433   -0.3833   -1.4562 H   0  0  0  0  0  0  0  0  0  0  0  0
    2.2889    1.1213   -0.4471 H   0  0  0  0  0  0  0  0  0  0  0  0
   -2.0735    1.1574   -1.3603 H   0  0  0  0  0  0  0  0  0  0  0  0
   -1.5051   -1.3405   -0.9927 H   0  0  0  0  0  0  0  0  0  0  0  0
   -2.7087   -1.2163    0.1613 H   0  0  0  0  0  0  0  0  0  0  0  0
   -2.2333    1.0937    1.4584 H   0  0  0  0  0  0  0  0  0  0  0  0
  1  2  1  0
  2  3  1  0
  3  4  1  0
  4  5  2  0
  4  6  1  0
  6  7  1  0
  6  8  1  0
  1  9  1  0
  1 10  1  0
  1 11  1  0
  2 12  1  0
  2 13  1  0
  6 14  1  6
  7 15  1  0
  7 16  1  0
  8 17  1  0
M  END
$$$$

     RDKit          3D

 17 16  0  0  0  0  0  0  0  0999 V2000
   -2.9250    0.3476   -0.4015 C   0  0  0  0  0  0  0  0  0  0  0  0
   -1.7620   -0.3381    0.2382 C   0  0  0  0  0  0  0  0  0  0  0  0
   -0.5199    0.2765   -0.1098 O   0  0  0  0  0  0  0  0  0  0  0  0
    0.6409   -0.2624    0.4173 C   0  0  0  0  0  0  0  0  0  0  0  0
    0.5616   -1.2603    1.1734 O   0  0  0  0  0  0  0  0  0  0  0  0
    1.9860    0.2856    0.1304 C   0  0  1  0  0  0  0  0  0  0  0  0
    2.7437   -0.7771   -0.5189 N   0  0  0  0  0  0  0  0  0  0  0  0
    1.9578    1.3764   -0.7073 O   0  0  0  0  0  0  0  0  0  0  0  0
   -3.0093    0.1184   -1.4821 H   0  0  0  0  0  0  0  0  0  0  0  0
   -2.8232    1.4529   -0.2989 H   0  0  0  0  0  0  0  0  0  0  0  0
   -3.8507    0.0277    0.1446 H   0  0  0  0  0  0  0  0  0  0  0  0
   -1.6987   -1.3842   -0.1328 H   0  0  0  0  0  0  0  0  0  0  0  0
   -1.9038   -0.3166    1.3430 H   0  0  0  0  0  0  0  0  0  0  0  0
    2.4990    0.5580    1.0758 H   0  0  0  0  0  0  0  0  0  0  0  0
    2.4222   -1.7159   -0.2558 H   0  0  0  0  0  0  0  0  0  0  0  0
    3.7576   -0.6197   -0.4227 H   0  0  0  0  0  0  0  0  0  0  0  0
    1.9238    2.2313   -0.1931 H   0  0  0  0  0  0  0  0  0  0  0  0
  1  2  1  0
  2  3  1  0
  3  4  1  0
  4  5  2  0
  4  6  1  0
  6  7  1  0
  6  8  1  0
  1  9  1  0
  1 10  1  0
  1 11  1  0
  2 12  1  0
  2 13  1  0
  6 14  1  1
  7 15  1  0
  7 16  1  0
  8 17  1  0
M  END
$$$$

     RDKit          3D

 17 16  0  0  0  0  0  0  0  0999 V2000
   -2.5704   -0.0683    0.0441 C   0  0  0  0  0  0  0  0  0  0  0  0
   -1.6674    0.7987    0.9042 C   0  0  0  0  0  0  0  0  0  0  0  0
   -0.3564    0.8628    0.4092 O   0  0  0  0  0  0  0  0  0  0  0  0
    0.4163   -0.2825    0.2683 C   0  0  0  0  0  0  0  0  0  0  0  0
   -0.1392   -1.3694    0.6132 O   0  0  0  0  0  0  0  0  0  0  0  0
    1.7903   -0.2689   -0.2436 C   0  0  1  0  0  0  0  0  0  0  0  0
    2.6374    0.5401    0.5506 N   0  0  0  0  0  0  0  0  0  0  0  0
    2.2898   -1.5612   -0.2644 O   0  0  0  0  0  0  0  0  0  0  0  0
   -2.5445   -1.1176    0.4210 H   0  0  0  0  0  0  0  0  0  0  0  0
   -3.6232    0.2893    0.0558 H   0  0  0  0  0  0  0  0  0  0  0  0
   -2.2173   -0.0705   -1.0095 H   0  0  0  0  0  0  0  0  0  0  0  0
   -1.6623    0.3709    1.9456 H   0  0  0  0  0  0  0  0  0  0  0  0
   -2.0836    1.8134    1.0039 H   0  0  0  0  0  0  0  0  0  0  0  0
    1.8166    0.0917   -1.3109 H   0  0  0  0  0  0  0  0  0  0  0  0
    3.5457    0.7885    0.1593 H   0  0  0  0  0  0  0  0  0  0  0  0
    2.1963    1.2057    1.1852 H   0  0  0  0  0  0  0  0  0  0  0  0
    2.1718   -2.0227    0.5992 H   0  0  0  0  0  0  0  0  0  0  0  0
  1  2  1  0
  2  3  1  0
  3  4  1  0
  4  5  2  0
  4  6  1  0
  6  7  1  0
  6  8  1  0
  1  9  1  0
  1 10  1  0
  1 11  1  0
  2 12  1  0
  2 13  1  0
  6 14  1  6
  7 15  1  0
  7 16  1  0
  8 17  1  0
M  END
$$$$

     RDKit          3D

 17 16  0  0  0  0  0  0  0  0999 V2000
   -2.4858    0.2606   -0.6912 C   0  0  0  0  0  0  0  0  0  0  0  0
   -1.8717   -0.5951    0.3732 C   0  0  0  0  0  0  0  0  0  0  0  0
   -0.4994   -0.7934    0.2368 O   0  0  0  0  0  0  0  0  0  0  0  0
    0.4509    0.2254    0.2368 C   0  0  0  0  0  0  0  0  0  0  0  0
   -0.0214    1.3897    0.3732 O   0  0  0  0  0  0  0  0  0  0  0  0
    1.8957    0.0075    0.0923 C   0  0  1  0  0  0  0  0  0  0  0  0
    2.2407   -0.6825   -1.1330 N   0  0  0  0  0  0  0  0  0  0  0  0
    2.5450    1.2401    0.1359 O   0  0  0  0  0  0  0  0  0  0  0  0
   -2.0246    1.2409   -0.8210 H   0  0  0  0  0  0  0  0  0  0  0  0
   -2.5841   -0.2645   -1.6679 H   0  0  0  0  0  0  0  0  0  0  0  0
   -3.5481    0.4596   -0.3659 H   0  0  0  0  0  0  0  0  0  0  0  0
   -2.1701   -0.1744    1.3539 H   0  0  0  0  0  0  0  0  0  0  0  0
   -2.3588   -1.5966    0.3129 H   0  0  0  0  0  0  0  0  0  0  0  0
    2.3358   -0.6014    0.9248 H   0  0  0  0  0  0  0  0  0  0  0  0
    2.9355   -0.1282   -1.6721 H   0  0  0  0  0  0  0  0  0  0  0  0
    2.6430   -1.6332   -0.9627 H   0  0  0  0  0  0  0  0  0  0  0  0
    2.5174    1.6452    1.0226 H   0  0  0  0  0  0  0  0  0  0  0  0
  1  2  1  0
  2  3  1  0
  3  4  1  0
  4  5  2  0
  4  6  1  0
  6  7  1  0
  6  8  1  0
  1  9  1  0
  1 10  1  0
  1 11  1  0
  2 12  1  0
  2 13  1  0
  6 14  1  1
  7 15  1  0
  7 16  1  0
  8 17  1  0
M  END
$$$$

     RDKit          3D

 17 16  0  0  0  0  0  0  0  0999 V2000
    2.5048    0.4077   -0.3803 C   0  0  0  0  0  0  0  0  0  0  0  0
    1.7164   -0.8440   -0.1115 C   0  0  0  0  0  0  0  0  0  0  0  0
    0.3699   -0.7132   -0.5298 O   0  0  0  0  0  0  0  0  0  0  0  0
   -0.3982    0.2871    0.0449 C   0  0  0  0  0  0  0  0  0  0  0  0
    0.0534    1.0702    0.9119 O   0  0  0  0  0  0  0  0  0  0  0  0
   -1.8009    0.4150   -0.3981 C   0  0  1  0  0  0  0  0  0  0  0  0
   -2.5290   -0.8080   -0.0847 N   0  0  0  0  0  0  0  0  0  0  0  0
   -2.4218    1.4490    0.2645 O   0  0  0  0  0  0  0  0  0  0  0  0
    3.1459    0.6999    0.4672 H   0  0  0  0  0  0  0  0  0  0  0  0
    3.1004    0.2139   -1.3121 H   0  0  0  0  0  0  0  0  0  0  0  0
    1.8188    1.2428   -0.6107 H   0  0  0  0  0  0  0  0  0  0  0  0
    2.1948   -1.7294   -0.5981 H   0  0  0  0  0  0  0  0  0  0  0  0
    1.7535   -1.0434    0.9942 H   0  0  0  0  0  0  0  0  0  0  0  0
   -1.8748    0.6020   -1.4910 H   0  0  0  0  0  0  0  0  0  0  0  0
   -2.7803   -0.7562    0.9467 H   0  0  0  0  0  0  0  0  0  0  0  0
   -1.8834   -1.6408   -0.1951 H   0  0  0  0  0  0  0  0  0  0  0  0
   -2.9696    1.1472    1.0102 H   0  0  0  0  0  0  0  0  0  0  0  0
  1  2  1  0
  2  3  1  0
  3  4  1  0
  4  5  2  0
  4  6  1  0
  6  7  1  0
  6  8  1  0
  1  9  1  0
  1 10  1  0
  1 11  1  0
  2 12  1  0
  2 13  1  0
  6 14  1  6
  7 15  1  0
  7 16  1  0
  8 17  1  0
M  END
$$$$

     RDKit          3D

 17 16  0  0  0  0  0  0  0  0999 V2000
    2.6026    0.1970   -0.0065 C   0  0  0  0  0  0  0  0  0  0  0  0
    1.7286   -0.9107    0.5382 C   0  0  0  0  0  0  0  0  0  0  0  0
    0.4015   -0.3984    0.6793 O   0  0  0  0  0  0  0  0  0  0  0  0
   -0.3152    0.0865   -0.3900 C   0  0  0  0  0  0  0  0  0  0  0  0
    0.1972    0.0864   -1.5308 O   0  0  0  0  0  0  0  0  0  0  0  0
   -1.7042    0.6267   -0.2649 C   0  0  1  0  0  0  0  0  0  0  0  0
   -2.5476   -0.2108   -1.1036 N   0  0  0  0  0  0  0  0  0  0  0  0
   -2.1289    0.5563    1.0682 O   0  0  0  0  0  0  0  0  0  0  0  0
    3.6834   -0.0081    0.2250 H   0  0  0  0  0  0  0  0  0  0  0  0
    2.3075    1.1699    0.4157 H   0  0  0  0  0  0  0  0  0  0  0  0
    2.4955    0.1903   -1.1173 H   0  0  0  0  0  0  0  0  0  0  0  0
    1.7430   -1.8021   -0.1229 H   0  0  0  0  0  0  0  0  0  0  0  0
    2.1130   -1.2336    1.5219 H   0  0  0  0  0  0  0  0  0  0  0  0
   -1.6845    1.6700   -0.6006 H   0  0  0  0  0  0  0  0  0  0  0  0
   -2.4158   -1.2000   -0.8096 H   0  0  0  0  0  0  0  0  0  0  0  0
   -3.5496    0.0383   -1.0384 H   0  0  0  0  0  0  0  0  0  0  0  0
   -2.9266    1.1423    1.1371 H   0  0  0  0  0  0  0  0  0  0  0  0
  1  2  1  0
  2  3  1  0
  3  4  1  0
  4  5  2  0
  4  6  1  0
  6  7  1  0
  6  8  1  0
  1  9  1  0
  1 10  1  0
  1 11  1  0
  2 12  1  0
  2 13  1  0
  6 14  1  6
  7 15  1  0
  7 16  1  0
  8 17  1  0
M  END
$$$$

     RDKit          3D

 17 16  0  0  0  0  0  0  0  0999 V2000
    2.6107    0.1946    0.1487 C   0  0  0  0  0  0  0  0  0  0  0  0
    1.6961   -0.7014   -0.6461 C   0  0  0  0  0  0  0  0  0  0  0  0
    0.3790   -0.1980   -0.7343 O   0  0  0  0  0  0  0  0  0  0  0  0
   -0.4150    0.0373    0.3750 C   0  0  0  0  0  0  0  0  0  0  0  0
    0.0415   -0.2024    1.5155 O   0  0  0  0  0  0  0  0  0  0  0  0
   -1.7853    0.5675    0.1728 C   0  0  1  0  0  0  0  0  0  0  0  0
   -2.5148   -0.3386   -0.6929 N   0  0  0  0  0  0  0  0  0  0  0  0
   -2.4527    0.7491    1.3805 O   0  0  0  0  0  0  0  0  0  0  0  0
    2.0826    1.1418    0.4292 H   0  0  0  0  0  0  0  0  0  0  0  0
    3.5177    0.5007   -0.4141 H   0  0  0  0  0  0  0  0  0  0  0  0
    2.9429   -0.2640    1.1055 H   0  0  0  0  0  0  0  0  0  0  0  0
    1.6238   -1.6709   -0.0851 H   0  0  0  0  0  0  0  0  0  0  0  0
    2.0631   -0.9001   -1.6674 H   0  0  0  0  0  0  0  0  0  0  0  0
   -1.6922    1.5485   -0.3661 H   0  0  0  0  0  0  0  0  0  0  0  0
   -2.0736   -0.2749   -1.6336 H   0  0  0  0  0  0  0  0  0  0  0  0
   -3.5258   -0.0706   -0.7265 H   0  0  0  0  0  0  0  0  0  0  0  0
   -2.4980   -0.1184    1.8389 H   0  0  0  0  0  0  0  0  0  0  0  0
  1  2  1  0
  2  3  1  0
  3  4  1  0
  4  5  2  0
  4  6  1  0
  6  7  1  0
  6  8  1  0
  1  9  1  0
  1 10  1  0
  1 11  1  0
  2 12  1  0
  2 13  1  0
  6 14  1  6
  7 15  1  0
  7 16  1  0
  8 17  1  0
M  END
$$$$

     RDKit          3D

 17 16  0  0  0  0  0  0  0  0999 V2000
    2.9401   -0.2697    0.5902 C   0  0  0  0  0  0  0  0  0  0  0  0
    1.8149    0.2995   -0.1992 C   0  0  0  0  0  0  0  0  0  0  0  0
    0.5558   -0.2641    0.1498 O   0  0  0  0  0  0  0  0  0  0  0  0
   -0.5818    0.1696   -0.5027 C   0  0  0  0  0  0  0  0  0  0  0  0
   -0.4490    1.0553   -1.3874 O   0  0  0  0  0  0  0  0  0  0  0  0
   -1.9412   -0.3727   -0.1938 C   0  0  1  0  0  0  0  0  0  0  0  0
   -2.3069   -0.2041    1.1775 N   0  0  0  0  0  0  0  0  0  0  0  0
   -2.8751    0.2393   -0.9921 O   0  0  0  0  0  0  0  0  0  0  0  0
    3.6396    0.4987    0.9682 H   0  0  0  0  0  0  0  0  0  0  0  0
    2.5892   -0.8552    1.4835 H   0  0  0  0  0  0  0  0  0  0  0  0
    3.5486   -0.9349   -0.0694 H   0  0  0  0  0  0  0  0  0  0  0  0
    2.0008    0.1659   -1.3042 H   0  0  0  0  0  0  0  0  0  0  0  0
    1.7890    1.4102   -0.0306 H   0  0  0  0  0  0  0  0  0  0  0  0
   -1.9575   -1.4695   -0.4536 H   0  0  0  0  0  0  0  0  0  0  0  0
   -2.5860   -1.1019    1.6175 H   0  0  0  0  0  0  0  0  0  0  0  0
   -3.0987    0.4766    1.2864 H   0  0  0  0  0  0  0  0  0  0  0  0
   -3.0818    1.1570   -0.6918 H   0  0  0  0  0  0  0  0  0  0  0  0
  1  2  1  0
  2  3  1  0
  3  4  1  0
  4  5  2  0
  4  6  1  0
  6  7  1  0
  6  8  1  0
  1  9  1  0
  1 10  1  0
  1 11  1  0
  2 12  1  0
  2 13  1  0
  6 14  1  6
  7 15  1  0
  7 16  1  0
  8 17  1  0
M  END
$$$$
