
     RDKit          3D

 27 27  0  0  0  0  0  0  0  0999 V2000
    3.7136    0.1843    0.3475 C   0  0  0  0  0  0  0  0  0  0  0  0
    2.6100   -0.2014   -0.6020 C   0  0  0  0  0  0  0  0  0  0  0  0
    1.3808    0.6333   -0.4153 C   0  0  0  0  0  0  0  0  0  0  0  0
    1.5041    1.8685   -0.3725 O   0  0  0  0  0  0  0  0  0  0  0  0
    0.0924    0.0562   -0.2886 N   0  0  0  0  0  0  0  0  0  0  0  0
   -0.0606   -1.4057   -0.3259 C   0  0  0  0  0  0  0  0  0  0  0  0
   -1.5677   -1.6174   -0.4005 C   0  0  1  0  0  0  0  0  0  0  0  0
   -1.9454   -2.8551    0.0608 O   0  0  0  0  0  0  0  0  0  0  0  0
   -2.0082   -0.4875    0.4937 C   0  0  0  0  0  0  0  0  0  0  0  0
   -1.1753    0.6343   -0.1312 C   0  0  1  0  0  0  0  0  0  0  0  0
   -1.2953    1.8660    0.6581 C   0  0  0  0  0  0  0  0  0  0  0  0
   -2.5535    2.5156    0.6888 N   0  0  0  0  0  0  0  0  0  0  0  0
   -0.3483    2.3531    1.2903 O   0  0  0  0  0  0  0  0  0  0  0  0
    3.9608   -0.6489    1.0564 H   0  0  0  0  0  0  0  0  0  0  0  0
    4.6812    0.4245   -0.1716 H   0  0  0  0  0  0  0  0  0  0  0  0
    3.4488    1.0481    0.9572 H   0  0  0  0  0  0  0  0  0  0  0  0
    3.0046   -0.0402   -1.6462 H   0  0  0  0  0  0  0  0  0  0  0  0
    2.3919   -1.3019   -0.5464 H   0  0  0  0  0  0  0  0  0  0  0  0
    0.3589   -1.7826    0.6164 H   0  0  0  0  0  0  0  0  0  0  0  0
    0.4250   -1.8057   -1.2333 H   0  0  0  0  0  0  0  0  0  0  0  0
   -1.9015   -1.3917   -1.4149 H   0  0  0  0  0  0  0  0  0  0  0  0
   -2.2195   -3.4079   -0.7225 H   0  0  0  0  0  0  0  0  0  0  0  0
   -1.6694   -0.6810    1.5062 H   0  0  0  0  0  0  0  0  0  0  0  0
   -3.0908   -0.2753    0.4104 H   0  0  0  0  0  0  0  0  0  0  0  0
   -1.6700    0.7634   -1.1526 H   0  0  0  0  0  0  0  0  0  0  0  0
   -2.8587    3.0449   -0.1623 H   0  0  0  0  0  0  0  0  0  0  0  0
   -3.2079    2.5100    1.4998 H   0  0  0  0  0  0  0  0  0  0  0  0
  1  2  1  0
  2  3  1  0
  3  4  2  0
  3  5  1  0
  5  6  1  0
  6  7  1  0
  7  8  1  0
  7  9  1  0
  9 10  1  0
 10 11  1  0
 11 12  1  0
 11 13  2  0
 10  5  1  0
  1 14  1  0
  1 15  1  0
  1 16  1  0
  2 17  1  0
  2 18  1  0
  6 19  1  0
  6 20  1  0
  7 21  1  6
  8 22  1  0
  9 23  1  0
  9 24  1  0
 10 25  1  6
 12 26  1  0
 12 27  1  0
M  END
$$$$

     RDKit          3D

 27 27  0  0  0  0  0  0  0  0999 V2000
    3.8998   -0.0966   -0.3213 C   0  0  0  0  0  0  0  0  0  0  0  0
    2.5626   -0.6802    0.0702 C   0  0  0  0  0  0  0  0  0  0  0  0
    1.5043    0.2640   -0.3352 C   0  0  0  0  0  0  0  0  0  0  0  0
    1.8163    1.3347   -0.9020 O   0  0  0  0  0  0  0  0  0  0  0  0
    0.1366    0.0069   -0.1076 N   0  0  0  0  0  0  0  0  0  0  0  0
   -0.3707   -1.1874    0.5358 C   0  0  0  0  0  0  0  0  0  0  0  0
   -1.5288   -1.5488   -0.3835 C   0  0  1  0  0  0  0  0  0  0  0  0
   -2.4159   -2.3507    0.2965 O   0  0  0  0  0  0  0  0  0  0  0  0
   -2.0841   -0.1990   -0.7305 C   0  0  0  0  0  0  0  0  0  0  0  0
   -1.0075    0.8208   -0.4407 C   0  0  1  0  0  0  0  0  0  0  0  0
   -1.3464    1.7074    0.6788 C   0  0  0  0  0  0  0  0  0  0  0  0
   -2.4361    2.5958    0.5748 N   0  0  0  0  0  0  0  0  0  0  0  0
   -0.6749    1.6815    1.7270 O   0  0  0  0  0  0  0  0  0  0  0  0
    3.7533    0.4904   -1.2543 H   0  0  0  0  0  0  0  0  0  0  0  0
    4.1936    0.6082    0.5080 H   0  0  0  0  0  0  0  0  0  0  0  0
    4.6410   -0.9057   -0.4462 H   0  0  0  0  0  0  0  0  0  0  0  0
    2.5488   -0.8312    1.1708 H   0  0  0  0  0  0  0  0  0  0  0  0
    2.4721   -1.6527   -0.4692 H   0  0  0  0  0  0  0  0  0  0  0  0
   -0.7965   -0.9218    1.5167 H   0  0  0  0  0  0  0  0  0  0  0  0
    0.3714   -1.9907    0.6020 H   0  0  0  0  0  0  0  0  0  0  0  0
   -1.0909   -2.0715   -1.2595 H   0  0  0  0  0  0  0  0  0  0  0  0
   -2.2608   -2.2478    1.2614 H   0  0  0  0  0  0  0  0  0  0  0  0
   -2.3294   -0.1703   -1.8121 H   0  0  0  0  0  0  0  0  0  0  0  0
   -3.0246    0.0177   -0.1845 H   0  0  0  0  0  0  0  0  0  0  0  0
   -0.8187    1.4392   -1.3562 H   0  0  0  0  0  0  0  0  0  0  0  0
   -2.4381    3.3859   -0.1162 H   0  0  0  0  0  0  0  0  0  0  0  0
   -3.2763    2.5019    1.1768 H   0  0  0  0  0  0  0  0  0  0  0  0
  1  2  1  0
  2  3  1  0
  3  4  2  0
  3  5  1  0
  5  6  1  0
  6  7  1  0
  7  8  1  0
  7  9  1  0
  9 10  1  0
 10 11  1  0
 11 12  1  0
 11 13  2  0
 10  5  1  0
  1 14  1  0
  1 15  1  0
  1 16  1  0
  2 17  1  0
  2 18  1  0
  6 19  1  0
  6 20  1  0
  7 21  1  6
  8 22  1  0
  9 23  1  0
  9 24  1  0
 10 25  1  6
 12 26  1  0
 12 27  1  0
M  END
$$$$

     RDKit          3D

 27 27  0  0  0  0  0  0  0  0999 V2000
    3.8626    0.4999   -0.1098 C   0  0  0  0  0  0  0  0  0  0  0  0
    2.5856   -0.2811    0.2219 C   0  0  0  0  0  0  0  0  0  0  0  0
    1.4227    0.4310   -0.3427 C   0  0  0  0  0  0  0  0  0  0  0  0
    1.5752    1.4984   -0.9759 O   0  0  0  0  0  0  0  0  0  0  0  0
    0.1244   -0.0934   -0.1693 N   0  0  0  0  0  0  0  0  0  0  0  0
   -0.2017   -1.3247    0.5442 C   0  0  0  0  0  0  0  0  0  0  0  0
   -1.4717   -1.7613   -0.1195 C   0  0  1  0  0  0  0  0  0  0  0  0
   -2.1909   -2.6649    0.6522 O   0  0  0  0  0  0  0  0  0  0  0  0
   -2.2031   -0.4693   -0.3163 C   0  0  0  0  0  0  0  0  0  0  0  0
   -1.0873    0.4905   -0.6614 C   0  0  1  0  0  0  0  0  0  0  0  0
   -1.3710    1.8134   -0.0990 C   0  0  0  0  0  0  0  0  0  0  0  0
   -2.5373    2.5043   -0.4988 N   0  0  0  0  0  0  0  0  0  0  0  0
   -0.6007    2.3448    0.7294 O   0  0  0  0  0  0  0  0  0  0  0  0
    3.7827    1.4702    0.4055 H   0  0  0  0  0  0  0  0  0  0  0  0
    3.9013    0.6630   -1.1898 H   0  0  0  0  0  0  0  0  0  0  0  0
    4.7260   -0.0443    0.2952 H   0  0  0  0  0  0  0  0  0  0  0  0
    2.7289   -1.2878   -0.2095 H   0  0  0  0  0  0  0  0  0  0  0  0
    2.5561   -0.3437    1.3345 H   0  0  0  0  0  0  0  0  0  0  0  0
    0.6163   -2.0656    0.4680 H   0  0  0  0  0  0  0  0  0  0  0  0
   -0.3618   -1.0430    1.5967 H   0  0  0  0  0  0  0  0  0  0  0  0
   -1.2465   -2.1875   -1.1130 H   0  0  0  0  0  0  0  0  0  0  0  0
   -2.0519   -3.5605    0.2531 H   0  0  0  0  0  0  0  0  0  0  0  0
   -2.9651   -0.5173   -1.1209 H   0  0  0  0  0  0  0  0  0  0  0  0
   -2.6568   -0.1414    0.6438 H   0  0  0  0  0  0  0  0  0  0  0  0
   -1.0162    0.5636   -1.7763 H   0  0  0  0  0  0  0  0  0  0  0  0
   -3.2810    2.7054    0.2190 H   0  0  0  0  0  0  0  0  0  0  0  0
   -2.6389    2.8013   -1.4959 H   0  0  0  0  0  0  0  0  0  0  0  0
  1  2  1  0
  2  3  1  0
  3  4  2  0
  3  5  1  0
  5  6  1  0
  6  7  1  0
  7  8  1  0
  7  9  1  0
  9 10  1  0
 10 11  1  0
 11 12  1  0
 11 13  2  0
 10  5  1  0
  1 14  1  0
  1 15  1  0
  1 16  1  0
  2 17  1  0
  2 18  1  0
  6 19  1  0
  6 20  1  0
  7 21  1  6
  8 22  1  0
  9 23  1  0
  9 24  1  0
 10 25  1  6
 12 26  1  0
 12 27  1  0
M  END
$$$$

     RDKit          3D

 27 27  0  0  0  0  0  0  0  0999 V2000
    3.6348    0.6531    0.0705 C   0  0  0  0  0  0  0  0  0  0  0  0
    2.3939   -0.1742    0.0072 C   0  0  0  0  0  0  0  0  0  0  0  0
    1.1705    0.6020   -0.2155 C   0  0  0  0  0  0  0  0  0  0  0  0
    1.2195    1.8409   -0.3343 O   0  0  0  0  0  0  0  0  0  0  0  0
   -0.0904   -0.0405   -0.2998 N   0  0  0  0  0  0  0  0  0  0  0  0
   -0.2013   -1.5065   -0.1750 C   0  0  0  0  0  0  0  0  0  0  0  0
   -1.5953   -1.8107   -0.7024 C   0  0  1  0  0  0  0  0  0  0  0  0
   -2.0808   -3.0190   -0.2661 O   0  0  0  0  0  0  0  0  0  0  0  0
   -2.3285   -0.6208   -0.1183 C   0  0  0  0  0  0  0  0  0  0  0  0
   -1.3923    0.4966   -0.5056 C   0  0  1  0  0  0  0  0  0  0  0  0
   -1.7036    1.7296    0.2413 C   0  0  0  0  0  0  0  0  0  0  0  0
   -0.8958    2.4050    1.1517 N   0  0  0  0  0  0  0  0  0  0  0  0
   -2.8570    2.2231    0.0141 O   0  0  0  0  0  0  0  0  0  0  0  0
    4.0949    0.6893   -0.9475 H   0  0  0  0  0  0  0  0  0  0  0  0
    3.4524    1.6991    0.3922 H   0  0  0  0  0  0  0  0  0  0  0  0
    4.4141    0.2289    0.7434 H   0  0  0  0  0  0  0  0  0  0  0  0
    2.5356   -0.9394   -0.7839 H   0  0  0  0  0  0  0  0  0  0  0  0
    2.3509   -0.7655    0.9676 H   0  0  0  0  0  0  0  0  0  0  0  0
    0.5620   -2.0143   -0.7653 H   0  0  0  0  0  0  0  0  0  0  0  0
   -0.1373   -1.7913    0.8940 H   0  0  0  0  0  0  0  0  0  0  0  0
   -1.6125   -1.6943   -1.8029 H   0  0  0  0  0  0  0  0  0  0  0  0
   -2.5073   -3.0005    0.6056 H   0  0  0  0  0  0  0  0  0  0  0  0
   -2.3684   -0.6788    0.9998 H   0  0  0  0  0  0  0  0  0  0  0  0
   -3.3367   -0.4986   -0.5627 H   0  0  0  0  0  0  0  0  0  0  0  0
   -1.5384    0.6655   -1.5961 H   0  0  0  0  0  0  0  0  0  0  0  0
   -0.6768    3.4058    1.0146 H   0  0  0  0  0  0  0  0  0  0  0  0
   -0.5061    1.9152    1.9736 H   0  0  0  0  0  0  0  0  0  0  0  0
  1  2  1  0
  2  3  1  0
  3  4  2  0
  3  5  1  0
  5  6  1  0
  6  7  1  0
  7  8  1  0
  7  9  1  0
  9 10  1  0
 10 11  1  0
 11 12  1  0
 11 13  2  0
 10  5  1  0
  1 14  1  0
  1 15  1  0
  1 16  1  0
  2 17  1  0
  2 18  1  0
  6 19  1  0
  6 20  1  0
  7 21  1  6
  8 22  1  0
  9 23  1  0
  9 24  1  0
 10 25  1  6
 12 26  1  0
 12 27  1  0
M  END
$$$$

     RDKit          3D

 27 27  0  0  0  0  0  0  0  0999 V2000
    3.4363   -0.7632   -0.3305 C   0  0  0  0  0  0  0  0  0  0  0  0
    2.5334   -0.6827    0.8793 C   0  0  0  0  0  0  0  0  0  0  0  0
    1.1377   -1.0633    0.5556 C   0  0  0  0  0  0  0  0  0  0  0  0
    0.9118   -2.2905    0.4323 O   0  0  0  0  0  0  0  0  0  0  0  0
    0.0853   -0.1074    0.3874 N   0  0  0  0  0  0  0  0  0  0  0  0
    0.2986    1.3052    0.5342 C   0  0  0  0  0  0  0  0  0  0  0  0
   -1.1146    1.9091    0.5987 C   0  0  1  0  0  0  0  0  0  0  0  0
   -1.1381    3.2145    0.1774 O   0  0  0  0  0  0  0  0  0  0  0  0
   -1.8667    0.9608   -0.3073 C   0  0  0  0  0  0  0  0  0  0  0  0
   -1.2738   -0.3699    0.0757 C   0  0  1  0  0  0  0  0  0  0  0  0
   -1.4622   -1.3658   -1.0174 C   0  0  0  0  0  0  0  0  0  0  0  0
   -2.7842   -1.7496   -1.3379 N   0  0  0  0  0  0  0  0  0  0  0  0
   -0.5333   -1.8837   -1.6690 O   0  0  0  0  0  0  0  0  0  0  0  0
    4.0601   -1.6748   -0.2850 H   0  0  0  0  0  0  0  0  0  0  0  0
    2.8571   -0.8102   -1.2768 H   0  0  0  0  0  0  0  0  0  0  0  0
    4.1254    0.0949   -0.4186 H   0  0  0  0  0  0  0  0  0  0  0  0
    2.5214    0.3651    1.2218 H   0  0  0  0  0  0  0  0  0  0  0  0
    2.9195   -1.3973    1.6391 H   0  0  0  0  0  0  0  0  0  0  0  0
    0.9121    1.7674   -0.2380 H   0  0  0  0  0  0  0  0  0  0  0  0
    0.7363    1.4693    1.5462 H   0  0  0  0  0  0  0  0  0  0  0  0
   -1.5303    1.7833    1.6242 H   0  0  0  0  0  0  0  0  0  0  0  0
   -1.9454    3.6522    0.5969 H   0  0  0  0  0  0  0  0  0  0  0  0
   -2.9592    0.9876   -0.1267 H   0  0  0  0  0  0  0  0  0  0  0  0
   -1.6225    1.1628   -1.3660 H   0  0  0  0  0  0  0  0  0  0  0  0
   -1.7926   -0.7406    1.0182 H   0  0  0  0  0  0  0  0  0  0  0  0
   -3.0560   -1.8141   -2.3331 H   0  0  0  0  0  0  0  0  0  0  0  0
   -3.4559   -1.9589   -0.5806 H   0  0  0  0  0  0  0  0  0  0  0  0
  1  2  1  0
  2  3  1  0
  3  4  2  0
  3  5  1  0
  5  6  1  0
  6  7  1  0
  7  8  1  0
  7  9  1  0
  9 10  1  0
 10 11  1  0
 11 12  1  0
 11 13  2  0
 10  5  1  0
  1 14  1  0
  1 15  1  0
  1 16  1  0
  2 17  1  0
  2 18  1  0
  6 19  1  0
  6 20  1  0
  7 21  1  1
  8 22  1  0
  9 23  1  0
  9 24  1  0
 10 25  1  1
 12 26  1  0
 12 27  1  0
M  END
$$$$

     RDKit          3D

 27 27  0  0  0  0  0  0  0  0999 V2000
    3.5926    0.9562    0.6531 C   0  0  0  0  0  0  0  0  0  0  0  0
    2.0800    0.9848    0.6273 C   0  0  0  0  0  0  0  0  0  0  0  0
    1.5736   -0.1684   -0.1531 C   0  0  0  0  0  0  0  0  0  0  0  0
    2.4255   -0.9842   -0.6531 O   0  0  0  0  0  0  0  0  0  0  0  0
    0.2207   -0.4346   -0.3882 N   0  0  0  0  0  0  0  0  0  0  0  0
   -0.3218   -1.5352   -1.1533 C   0  0  0  0  0  0  0  0  0  0  0  0
   -1.4376   -0.7568   -1.8779 C   0  0  1  0  0  0  0  0  0  0  0  0
   -2.2258   -1.5612   -2.6362 O   0  0  0  0  0  0  0  0  0  0  0  0
   -2.1200   -0.1357   -0.6889 C   0  0  0  0  0  0  0  0  0  0  0  0
   -0.8871    0.3581    0.0915 C   0  0  1  0  0  0  0  0  0  0  0  0
   -1.1093    0.1966    1.5459 C   0  0  0  0  0  0  0  0  0  0  0  0
   -2.1152    0.9676    2.1846 N   0  0  0  0  0  0  0  0  0  0  0  0
   -0.4106   -0.6149    2.1946 O   0  0  0  0  0  0  0  0  0  0  0  0
    3.9434   -0.0728    0.4059 H   0  0  0  0  0  0  0  0  0  0  0  0
    3.9810    1.3069    1.6305 H   0  0  0  0  0  0  0  0  0  0  0  0
    3.9905    1.6206   -0.1322 H   0  0  0  0  0  0  0  0  0  0  0  0
    1.7817    1.9561    0.1652 H   0  0  0  0  0  0  0  0  0  0  0  0
    1.7574    0.9380    1.6811 H   0  0  0  0  0  0  0  0  0  0  0  0
    0.3838   -1.9717   -1.8616 H   0  0  0  0  0  0  0  0  0  0  0  0
   -0.7543   -2.2656   -0.4380 H   0  0  0  0  0  0  0  0  0  0  0  0
   -0.9230    0.0494   -2.4273 H   0  0  0  0  0  0  0  0  0  0  0  0
   -2.2358   -2.5145   -2.3578 H   0  0  0  0  0  0  0  0  0  0  0  0
   -2.7869    0.6912   -0.9551 H   0  0  0  0  0  0  0  0  0  0  0  0
   -2.6277   -0.9493   -0.1322 H   0  0  0  0  0  0  0  0  0  0  0  0
   -0.8009    1.4321   -0.1695 H   0  0  0  0  0  0  0  0  0  0  0  0
   -1.8891    1.4903    3.0423 H   0  0  0  0  0  0  0  0  0  0  0  0
   -3.0851    1.0172    1.8023 H   0  0  0  0  0  0  0  0  0  0  0  0
  1  2  1  0
  2  3  1  0
  3  4  2  0
  3  5  1  0
  5  6  1  0
  6  7  1  0
  7  8  1  0
  7  9  1  0
  9 10  1  0
 10 11  1  0
 11 12  1  0
 11 13  2  0
 10  5  1  0
  1 14  1  0
  1 15  1  0
  1 16  1  0
  2 17  1  0
  2 18  1  0
  6 19  1  0
  6 20  1  0
  7 21  1  6
  8 22  1  0
  9 23  1  0
  9 24  1  0
 10 25  1  1
 12 26  1  0
 12 27  1  0
M  END
$$$$

     RDKit          3D

 27 27  0  0  0  0  0  0  0  0999 V2000
    3.8695    0.6643    0.1056 C   0  0  0  0  0  0  0  0  0  0  0  0
    2.5959   -0.0581    0.3937 C   0  0  0  0  0  0  0  0  0  0  0  0
    1.4787    0.5961   -0.3152 C   0  0  0  0  0  0  0  0  0  0  0  0
    1.7194    1.6141   -1.0280 O   0  0  0  0  0  0  0  0  0  0  0  0
    0.1759    0.0656   -0.1760 N   0  0  0  0  0  0  0  0  0  0  0  0
   -0.1744   -1.0815    0.6117 C   0  0  0  0  0  0  0  0  0  0  0  0
   -1.1700   -1.7966   -0.2507 C   0  0  1  0  0  0  0  0  0  0  0  0
   -1.9863   -2.6454    0.4886 O   0  0  0  0  0  0  0  0  0  0  0  0
   -1.9197   -0.6805   -0.9116 C   0  0  0  0  0  0  0  0  0  0  0  0
   -1.0381    0.5569   -0.7823 C   0  0  1  0  0  0  0  0  0  0  0  0
   -1.7431    1.5270    0.0828 C   0  0  0  0  0  0  0  0  0  0  0  0
   -2.9531    2.1241   -0.3308 N   0  0  0  0  0  0  0  0  0  0  0  0
   -1.2632    1.8254    1.1985 O   0  0  0  0  0  0  0  0  0  0  0  0
    4.5567    0.0726   -0.5430 H   0  0  0  0  0  0  0  0  0  0  0  0
    4.4465    0.9513    1.0020 H   0  0  0  0  0  0  0  0  0  0  0  0
    3.6843    1.6128   -0.4555 H   0  0  0  0  0  0  0  0  0  0  0  0
    2.6546   -1.1313    0.0580 H   0  0  0  0  0  0  0  0  0  0  0  0
    2.4332   -0.1106    1.4894 H   0  0  0  0  0  0  0  0  0  0  0  0
   -0.6038   -0.8232    1.6012 H   0  0  0  0  0  0  0  0  0  0  0  0
    0.6697   -1.7669    0.8034 H   0  0  0  0  0  0  0  0  0  0  0  0
   -0.5909   -2.3461   -1.0317 H   0  0  0  0  0  0  0  0  0  0  0  0
   -2.2380   -3.3923   -0.0978 H   0  0  0  0  0  0  0  0  0  0  0  0
   -2.0485   -0.9124   -1.9951 H   0  0  0  0  0  0  0  0  0  0  0  0
   -2.8855   -0.5488   -0.3877 H   0  0  0  0  0  0  0  0  0  0  0  0
   -0.8423    0.9928   -1.7829 H   0  0  0  0  0  0  0  0  0  0  0  0
   -3.4416    2.8434    0.2393 H   0  0  0  0  0  0  0  0  0  0  0  0
   -3.3858    1.8471   -1.2350 H   0  0  0  0  0  0  0  0  0  0  0  0
  1  2  1  0
  2  3  1  0
  3  4  2  0
  3  5  1  0
  5  6  1  0
  6  7  1  0
  7  8  1  0
  7  9  1  0
  9 10  1  0
 10 11  1  0
 11 12  1  0
 11 13  2  0
 10  5  1  0
  1 14  1  0
  1 15  1  0
  1 16  1  0
  2 17  1  0
  2 18  1  0
  6 19  1  0
  6 20  1  0
  7 21  1  6
  8 22  1  0
  9 23  1  0
  9 24  1  0
 10 25  1  6
 12 26  1  0
 12 27  1  0
M  END
$$$$

     RDKit          3D

 27 27  0  0  0  0  0  0  0  0999 V2000
    3.5084   -0.0273    0.4522 C   0  0  0  0  0  0  0  0  0  0  0  0
    2.6135   -0.5437   -0.6653 C   0  0  0  0  0  0  0  0  0  0  0  0
    1.3387   -0.9436   -0.0033 C   0  0  0  0  0  0  0  0  0  0  0  0
    1.3081   -2.0032    0.6528 O   0  0  0  0  0  0  0  0  0  0  0  0
    0.1837   -0.1476   -0.1095 N   0  0  0  0  0  0  0  0  0  0  0  0
    0.0957    1.1116   -0.8528 C   0  0  0  0  0  0  0  0  0  0  0  0
   -0.8978    1.8547    0.0511 C   0  0  1  0  0  0  0  0  0  0  0  0
   -1.3852    2.9852   -0.5560 O   0  0  0  0  0  0  0  0  0  0  0  0
   -1.9427    0.7792    0.2549 C   0  0  0  0  0  0  0  0  0  0  0  0
   -1.0933   -0.4363    0.4967 C   0  0  1  0  0  0  0  0  0  0  0  0
   -1.6906   -1.6715   -0.0310 C   0  0  0  0  0  0  0  0  0  0  0  0
   -2.9338   -2.1984    0.3460 N   0  0  0  0  0  0  0  0  0  0  0  0
   -1.0117   -2.3105   -0.9074 O   0  0  0  0  0  0  0  0  0  0  0  0
    3.3232    1.0676    0.5230 H   0  0  0  0  0  0  0  0  0  0  0  0
    4.5620   -0.1824    0.1982 H   0  0  0  0  0  0  0  0  0  0  0  0
    3.2666   -0.5347    1.4075 H   0  0  0  0  0  0  0  0  0  0  0  0
    2.4670    0.2550   -1.3969 H   0  0  0  0  0  0  0  0  0  0  0  0
    3.0504   -1.4365   -1.1469 H   0  0  0  0  0  0  0  0  0  0  0  0
    1.0417    1.6421   -0.9348 H   0  0  0  0  0  0  0  0  0  0  0  0
   -0.4319    0.9239   -1.7975 H   0  0  0  0  0  0  0  0  0  0  0  0
   -0.3467    2.0708    0.9998 H   0  0  0  0  0  0  0  0  0  0  0  0
   -2.1263    3.3228    0.0205 H   0  0  0  0  0  0  0  0  0  0  0  0
   -2.4835    0.6648   -0.6882 H   0  0  0  0  0  0  0  0  0  0  0  0
   -2.6059    1.0121    1.1133 H   0  0  0  0  0  0  0  0  0  0  0  0
   -0.9482   -0.4886    1.6149 H   0  0  0  0  0  0  0  0  0  0  0  0
   -3.8003   -1.7069    0.0367 H   0  0  0  0  0  0  0  0  0  0  0  0
   -3.0613   -3.0590    0.9220 H   0  0  0  0  0  0  0  0  0  0  0  0
  1  2  1  0
  2  3  1  0
  3  4  2  0
  3  5  1  0
  5  6  1  0
  6  7  1  0
  7  8  1  0
  7  9  1  0
  9 10  1  0
 10 11  1  0
 11 12  1  0
 11 13  2  0
 10  5  1  0
  1 14  1  0
  1 15  1  0
  1 16  1  0
  2 17  1  0
  2 18  1  0
  6 19  1  0
  6 20  1  0
  7 21  1  1
  8 22  1  0
  9 23  1  0
  9 24  1  0
 10 25  1  1
 12 26  1  0
 12 27  1  0
M  END
$$$$
