
     RDKit          3D

 34 34  0  0  0  0  0  0  0  0999 V2000
    2.5894   -1.4295    0.1432 C   0  0  0  0  0  0  0  0  0  0  0  0
    2.8532   -0.1136   -0.3490 N   0  0  0  0  0  0  0  0  0  0  0  0
    3.8845    0.4982    0.4429 C   0  0  0  0  0  0  0  0  0  0  0  0
    1.7108    0.7462   -0.4312 C   0  0  2  0  0  0  0  0  0  0  0  0
    1.0971    1.0036    0.9183 C   0  0  0  0  0  0  0  0  0  0  0  0
   -0.4109    0.8447    0.6722 C   0  0  0  0  0  0  0  0  0  0  0  0
   -0.5371    0.0885   -0.4679 N   0  0  0  0  0  0  0  0  0  0  0  0
   -1.3989   -0.9704   -0.6634 C   0  0  0  0  0  0  0  0  0  0  0  0
   -2.8384   -0.5685   -0.7498 C   0  0  2  0  0  0  0  0  0  0  0  0
   -3.0161    0.3825   -1.8675 N   0  0  0  0  0  0  0  0  0  0  0  0
   -3.4112    0.0470    0.4687 C   0  0  0  0  0  0  0  0  0  0  0  0
   -3.3160   -0.7561    1.5822 O   0  0  0  0  0  0  0  0  0  0  0  0
    0.6218    0.1768   -1.3025 C   0  0  0  0  0  0  0  0  0  0  0  0
    1.6476   -1.8534   -0.2138 H   0  0  0  0  0  0  0  0  0  0  0  0
    3.4002   -2.1005   -0.2656 H   0  0  0  0  0  0  0  0  0  0  0  0
    2.6210   -1.5183    1.2459 H   0  0  0  0  0  0  0  0  0  0  0  0
    3.4959    1.2134    1.2014 H   0  0  0  0  0  0  0  0  0  0  0  0
    4.5038    1.1152   -0.2594 H   0  0  0  0  0  0  0  0  0  0  0  0
    4.5371   -0.2529    0.9316 H   0  0  0  0  0  0  0  0  0  0  0  0
    2.0720    1.7045   -0.9012 H   0  0  0  0  0  0  0  0  0  0  0  0
    1.3520    0.2476    1.6830 H   0  0  0  0  0  0  0  0  0  0  0  0
    1.3170    2.0376    1.2494 H   0  0  0  0  0  0  0  0  0  0  0  0
   -0.8002    1.8916    0.4846 H   0  0  0  0  0  0  0  0  0  0  0  0
   -0.9098    0.4807    1.5724 H   0  0  0  0  0  0  0  0  0  0  0  0
   -1.1058   -1.5596   -1.6029 H   0  0  0  0  0  0  0  0  0  0  0  0
   -1.2555   -1.7358    0.1634 H   0  0  0  0  0  0  0  0  0  0  0  0
   -3.4522   -1.4771   -1.0510 H   0  0  0  0  0  0  0  0  0  0  0  0
   -4.0127    0.5131   -2.0626 H   0  0  0  0  0  0  0  0  0  0  0  0
   -2.4894    1.2563   -1.6387 H   0  0  0  0  0  0  0  0  0  0  0  0
   -2.9846    1.0716    0.6024 H   0  0  0  0  0  0  0  0  0  0  0  0
   -4.5130    0.2063    0.2518 H   0  0  0  0  0  0  0  0  0  0  0  0
   -2.5079   -1.2871    1.6442 H   0  0  0  0  0  0  0  0  0  0  0  0
    0.3783    0.8790   -2.1344 H   0  0  0  0  0  0  0  0  0  0  0  0
    0.8782   -0.7813   -1.7705 H   0  0  0  0  0  0  0  0  0  0  0  0
  1  2  1  0
  2  3  1  0
  2  4  1  0
  4  5  1  0
  5  6  1  0
  6  7  1  0
  7  8  1  0
  8  9  1  0
  9 10  1  0
  9 11  1  0
 11 12  1  0
  7 13  1  0
 13  4  1  0
  1 14  1  0
  1 15  1  0
  1 16  1  0
  3 17  1  0
  3 18  1  0
  3 19  1  0
  4 20  1  6
  5 21  1  0
  5 22  1  0
  6 23  1  0
  6 24  1  0
  8 25  1  0
  8 26  1  0
  9 27  1  6
 10 28  1  0
 10 29  1  0
 11 30  1  0
 11 31  1  0
 12 32  1  0
 13 33  1  0
 13 34  1  0
M  END
$$$$

     RDKit          3D

 34 34  0  0  0  0  0  0  0  0999 V2000
   -3.9358   -0.5688    0.8243 C   0  0  0  0  0  0  0  0  0  0  0  0
   -2.7902   -0.7958   -0.0847 N   0  0  0  0  0  0  0  0  0  0  0  0
   -3.1653   -0.2531   -1.3478 C   0  0  0  0  0  0  0  0  0  0  0  0
   -1.6112   -0.2837    0.5188 C   0  0  2  0  0  0  0  0  0  0  0  0
   -1.4992    1.1520    0.7807 C   0  0  0  0  0  0  0  0  0  0  0  0
   -0.2943    1.5979   -0.0319 C   0  0  0  0  0  0  0  0  0  0  0  0
    0.5861    0.4441    0.2416 N   0  0  0  0  0  0  0  0  0  0  0  0
    1.8148    0.4704   -0.4582 C   0  0  0  0  0  0  0  0  0  0  0  0
    2.6748   -0.6920    0.0694 C   0  0  2  0  0  0  0  0  0  0  0  0
    2.9099   -0.5477    1.4856 N   0  0  0  0  0  0  0  0  0  0  0  0
    4.0481   -0.6492   -0.5864 C   0  0  0  0  0  0  0  0  0  0  0  0
    4.6465    0.5822   -0.2970 O   0  0  0  0  0  0  0  0  0  0  0  0
   -0.3366   -0.6016   -0.2343 C   0  0  0  0  0  0  0  0  0  0  0  0
   -3.8183   -1.1824    1.7481 H   0  0  0  0  0  0  0  0  0  0  0  0
   -4.8736   -0.7479    0.2777 H   0  0  0  0  0  0  0  0  0  0  0  0
   -3.9156    0.5063    1.0976 H   0  0  0  0  0  0  0  0  0  0  0  0
   -2.6147    0.6504   -1.6765 H   0  0  0  0  0  0  0  0  0  0  0  0
   -2.9787   -1.0267   -2.1315 H   0  0  0  0  0  0  0  0  0  0  0  0
   -4.2563   -0.0532   -1.3980 H   0  0  0  0  0  0  0  0  0  0  0  0
   -1.5096   -0.8430    1.5033 H   0  0  0  0  0  0  0  0  0  0  0  0
   -1.1905    1.3338    1.8522 H   0  0  0  0  0  0  0  0  0  0  0  0
   -2.3793    1.7884    0.6343 H   0  0  0  0  0  0  0  0  0  0  0  0
    0.1401    2.5298    0.3541 H   0  0  0  0  0  0  0  0  0  0  0  0
   -0.4747    1.5915   -1.1086 H   0  0  0  0  0  0  0  0  0  0  0  0
    1.7335    0.4037   -1.5652 H   0  0  0  0  0  0  0  0  0  0  0  0
    2.3681    1.4010   -0.2331 H   0  0  0  0  0  0  0  0  0  0  0  0
    2.1772   -1.6345   -0.1416 H   0  0  0  0  0  0  0  0  0  0  0  0
    2.3096   -1.1324    2.0961 H   0  0  0  0  0  0  0  0  0  0  0  0
    3.0454    0.4263    1.8009 H   0  0  0  0  0  0  0  0  0  0  0  0
    4.6265   -1.4936   -0.1466 H   0  0  0  0  0  0  0  0  0  0  0  0
    3.9082   -0.7802   -1.6704 H   0  0  0  0  0  0  0  0  0  0  0  0
    4.9949    0.4964    0.6347 H   0  0  0  0  0  0  0  0  0  0  0  0
    0.1205   -1.5631    0.0048 H   0  0  0  0  0  0  0  0  0  0  0  0
   -0.4604   -0.5253   -1.3228 H   0  0  0  0  0  0  0  0  0  0  0  0
  1  2  1  0
  2  3  1  0
  2  4  1  0
  4  5  1  0
  5  6  1  0
  6  7  1  0
  7  8  1  0
  8  9  1  0
  9 10  1  0
  9 11  1  0
 11 12  1  0
  7 13  1  0
 13  4  1  0
  1 14  1  0
  1 15  1  0
  1 16  1  0
  3 17  1  0
  3 18  1  0
  3 19  1  0
  4 20  1  1
  5 21  1  0
  5 22  1  0
  6 23  1  0
  6 24  1  0
  8 25  1  0
  8 26  1  0
  9 27  1  1
 10 28  1  0
 10 29  1  0
 11 30  1  0
 11 31  1  0
 12 32  1  0
 13 33  1  0
 13 34  1  0
M  END
$$$$

     RDKit          3D

 34 34  0  0  0  0  0  0  0  0999 V2000
    3.5303    0.5527    0.8439 C   0  0  0  0  0  0  0  0  0  0  0  0
    3.1354   -0.2645   -0.2543 N   0  0  0  0  0  0  0  0  0  0  0  0
    3.5015   -1.6441    0.0514 C   0  0  0  0  0  0  0  0  0  0  0  0
    1.7822   -0.1577   -0.6816 C   0  0  2  0  0  0  0  0  0  0  0  0
    1.3771    1.2033   -1.1792 C   0  0  0  0  0  0  0  0  0  0  0  0
   -0.1557    1.1007   -1.0752 C   0  0  0  0  0  0  0  0  0  0  0  0
   -0.3615    0.3968    0.1683 N   0  0  0  0  0  0  0  0  0  0  0  0
   -1.5299   -0.4309    0.1987 C   0  0  0  0  0  0  0  0  0  0  0  0
   -2.8399    0.2911    0.1733 C   0  0  2  0  0  0  0  0  0  0  0  0
   -3.0398    1.1858    1.2649 N   0  0  0  0  0  0  0  0  0  0  0  0
   -3.9181   -0.8030    0.2068 C   0  0  0  0  0  0  0  0  0  0  0  0
   -5.1868   -0.2726    0.1062 O   0  0  0  0  0  0  0  0  0  0  0  0
    0.7761   -0.4879    0.3605 C   0  0  0  0  0  0  0  0  0  0  0  0
    3.8207    1.5702    0.4980 H   0  0  0  0  0  0  0  0  0  0  0  0
    2.8453    0.5690    1.6923 H   0  0  0  0  0  0  0  0  0  0  0  0
    4.4933    0.1153    1.2471 H   0  0  0  0  0  0  0  0  0  0  0  0
    2.6687   -2.3427   -0.2484 H   0  0  0  0  0  0  0  0  0  0  0  0
    3.6512   -1.7983    1.1278 H   0  0  0  0  0  0  0  0  0  0  0  0
    4.4338   -1.9118   -0.4689 H   0  0  0  0  0  0  0  0  0  0  0  0
    1.6941   -0.8381   -1.5865 H   0  0  0  0  0  0  0  0  0  0  0  0
    1.7534    2.0276   -0.5368 H   0  0  0  0  0  0  0  0  0  0  0  0
    1.6872    1.3491   -2.2140 H   0  0  0  0  0  0  0  0  0  0  0  0
   -0.5041    2.1427   -0.9295 H   0  0  0  0  0  0  0  0  0  0  0  0
   -0.5853    0.6146   -1.9521 H   0  0  0  0  0  0  0  0  0  0  0  0
   -1.4546   -1.0838    1.0928 H   0  0  0  0  0  0  0  0  0  0  0  0
   -1.4993   -1.0939   -0.7141 H   0  0  0  0  0  0  0  0  0  0  0  0
   -2.9815    0.8257   -0.7766 H   0  0  0  0  0  0  0  0  0  0  0  0
   -3.5694    2.0281    0.9111 H   0  0  0  0  0  0  0  0  0  0  0  0
   -2.1406    1.5796    1.6332 H   0  0  0  0  0  0  0  0  0  0  0  0
   -3.8785   -1.3246    1.2099 H   0  0  0  0  0  0  0  0  0  0  0  0
   -3.7634   -1.5690   -0.5553 H   0  0  0  0  0  0  0  0  0  0  0  0
   -5.3457    0.4757    0.7229 H   0  0  0  0  0  0  0  0  0  0  0  0
    0.4814   -1.5677    0.1860 H   0  0  0  0  0  0  0  0  0  0  0  0
    1.1224   -0.4374    1.3914 H   0  0  0  0  0  0  0  0  0  0  0  0
  1  2  1  0
  2  3  1  0
  2  4  1  0
  4  5  1  0
  5  6  1  0
  6  7  1  0
  7  8  1  0
  8  9  1  0
  9 10  1  0
  9 11  1  0
 11 12  1  0
  7 13  1  0
 13  4  1  0
  1 14  1  0
  1 15  1  0
  1 16  1  0
  3 17  1  0
  3 18  1  0
  3 19  1  0
  4 20  1  6
  5 21  1  0
  5 22  1  0
  6 23  1  0
  6 24  1  0
  8 25  1  0
  8 26  1  0
  9 27  1  6
 10 28  1  0
 10 29  1  0
 11 30  1  0
 11 31  1  0
 12 32  1  0
 13 33  1  0
 13 34  1  0
M  END
$$$$

     RDKit          3D

 34 34  0  0  0  0  0  0  0  0999 V2000
    3.8281   -0.2619   -0.7855 C   0  0  0  0  0  0  0  0  0  0  0  0
    3.0021    0.2700    0.2303 N   0  0  0  0  0  0  0  0  0  0  0  0
    3.2555    1.6107    0.6232 C   0  0  0  0  0  0  0  0  0  0  0  0
    1.6696   -0.1654    0.2942 C   0  0  2  0  0  0  0  0  0  0  0  0
    1.4311   -1.6168    0.5580 C   0  0  0  0  0  0  0  0  0  0  0  0
   -0.1002   -1.6290    0.4141 C   0  0  0  0  0  0  0  0  0  0  0  0
   -0.4107   -0.6432   -0.5713 N   0  0  0  0  0  0  0  0  0  0  0  0
   -1.3660    0.3467   -0.1939 C   0  0  0  0  0  0  0  0  0  0  0  0
   -2.7683   -0.1793   -0.0162 C   0  0  2  0  0  0  0  0  0  0  0  0
   -3.2220   -0.7512   -1.2473 N   0  0  0  0  0  0  0  0  0  0  0  0
   -3.6730    1.0127    0.3262 C   0  0  0  0  0  0  0  0  0  0  0  0
   -4.9711    0.5878    0.4573 O   0  0  0  0  0  0  0  0  0  0  0  0
    0.8213    0.0620   -0.9214 C   0  0  0  0  0  0  0  0  0  0  0  0
    4.3626    0.5845   -1.2767 H   0  0  0  0  0  0  0  0  0  0  0  0
    3.3029   -0.8197   -1.5795 H   0  0  0  0  0  0  0  0  0  0  0  0
    4.5563   -0.9953   -0.3356 H   0  0  0  0  0  0  0  0  0  0  0  0
    2.3175    2.2147    0.4448 H   0  0  0  0  0  0  0  0  0  0  0  0
    4.0399    2.1251    0.0484 H   0  0  0  0  0  0  0  0  0  0  0  0
    3.4005    1.6516    1.7226 H   0  0  0  0  0  0  0  0  0  0  0  0
    1.1724    0.3925    1.1430 H   0  0  0  0  0  0  0  0  0  0  0  0
    1.7671   -1.9902    1.5189 H   0  0  0  0  0  0  0  0  0  0  0  0
    1.8047   -2.2036   -0.3213 H   0  0  0  0  0  0  0  0  0  0  0  0
   -0.4943   -1.2814    1.3940 H   0  0  0  0  0  0  0  0  0  0  0  0
   -0.4384   -2.6514    0.1710 H   0  0  0  0  0  0  0  0  0  0  0  0
   -1.4074    1.1012   -1.0056 H   0  0  0  0  0  0  0  0  0  0  0  0
   -1.0959    0.9024    0.7275 H   0  0  0  0  0  0  0  0  0  0  0  0
   -2.8238   -0.8704    0.8502 H   0  0  0  0  0  0  0  0  0  0  0  0
   -3.6902   -1.6549   -1.0278 H   0  0  0  0  0  0  0  0  0  0  0  0
   -3.8122   -0.0665   -1.7454 H   0  0  0  0  0  0  0  0  0  0  0  0
   -3.5840    1.8042   -0.4686 H   0  0  0  0  0  0  0  0  0  0  0  0
   -3.3446    1.5118    1.2630 H   0  0  0  0  0  0  0  0  0  0  0  0
   -5.4983    0.8823   -0.3440 H   0  0  0  0  0  0  0  0  0  0  0  0
    0.6452    1.1332   -1.0726 H   0  0  0  0  0  0  0  0  0  0  0  0
    1.3238   -0.4130   -1.7873 H   0  0  0  0  0  0  0  0  0  0  0  0
  1  2  1  0
  2  3  1  0
  2  4  1  0
  4  5  1  0
  5  6  1  0
  6  7  1  0
  7  8  1  0
  8  9  1  0
  9 10  1  0
  9 11  1  0
 11 12  1  0
  7 13  1  0
 13  4  1  0
  1 14  1  0
  1 15  1  0
  1 16  1  0
  3 17  1  0
  3 18  1  0
  3 19  1  0
  4 20  1  1
  5 21  1  0
  5 22  1  0
  6 23  1  0
  6 24  1  0
  8 25  1  0
  8 26  1  0
  9 27  1  1
 10 28  1  0
 10 29  1  0
 11 30  1  0
 11 31  1  0
 12 32  1  0
 13 33  1  0
 13 34  1  0
M  END
$$$$

     RDKit          3D

 34 34  0  0  0  0  0  0  0  0999 V2000
   -3.4172    0.3148   -1.8468 C   0  0  0  0  0  0  0  0  0  0  0  0
   -3.0837    0.0359   -0.4999 N   0  0  0  0  0  0  0  0  0  0  0  0
   -3.3332    1.0390    0.4648 C   0  0  0  0  0  0  0  0  0  0  0  0
   -1.8331   -0.6228   -0.3837 C   0  0  2  0  0  0  0  0  0  0  0  0
   -1.4201   -0.8565    1.0528 C   0  0  0  0  0  0  0  0  0  0  0  0
    0.0566   -1.1428    0.9022 C   0  0  0  0  0  0  0  0  0  0  0  0
    0.4171   -0.3321   -0.1921 N   0  0  0  0  0  0  0  0  0  0  0  0
    1.7295   -0.3810   -0.6720 C   0  0  0  0  0  0  0  0  0  0  0  0
    2.6357    0.2508    0.3825 C   0  0  2  0  0  0  0  0  0  0  0  0
    2.2944    1.6115    0.6135 N   0  0  0  0  0  0  0  0  0  0  0  0
    4.0680   -0.0424    0.0888 C   0  0  0  0  0  0  0  0  0  0  0  0
    4.1510   -1.4440   -0.1125 O   0  0  0  0  0  0  0  0  0  0  0  0
   -0.6497    0.1440   -0.9334 C   0  0  0  0  0  0  0  0  0  0  0  0
   -3.1679    1.3516   -2.1774 H   0  0  0  0  0  0  0  0  0  0  0  0
   -2.9328   -0.4290   -2.5224 H   0  0  0  0  0  0  0  0  0  0  0  0
   -4.5334    0.1420   -1.9472 H   0  0  0  0  0  0  0  0  0  0  0  0
   -4.2350    1.6189    0.1822 H   0  0  0  0  0  0  0  0  0  0  0  0
   -3.6078    0.5213    1.4297 H   0  0  0  0  0  0  0  0  0  0  0  0
   -2.5134    1.7661    0.6295 H   0  0  0  0  0  0  0  0  0  0  0  0
   -1.8800   -1.6180   -0.8602 H   0  0  0  0  0  0  0  0  0  0  0  0
   -1.9416   -1.7112    1.5103 H   0  0  0  0  0  0  0  0  0  0  0  0
   -1.5017    0.0944    1.6499 H   0  0  0  0  0  0  0  0  0  0  0  0
    0.5935   -0.9749    1.8523 H   0  0  0  0  0  0  0  0  0  0  0  0
    0.1554   -2.2366    0.6580 H   0  0  0  0  0  0  0  0  0  0  0  0
    2.0968   -1.4127   -0.8885 H   0  0  0  0  0  0  0  0  0  0  0  0
    1.8043    0.1608   -1.6249 H   0  0  0  0  0  0  0  0  0  0  0  0
    2.4280   -0.2900    1.3695 H   0  0  0  0  0  0  0  0  0  0  0  0
    2.9973    2.1710    1.0954 H   0  0  0  0  0  0  0  0  0  0  0  0
    1.7980    2.0612   -0.1804 H   0  0  0  0  0  0  0  0  0  0  0  0
    4.7153    0.2412    0.9635 H   0  0  0  0  0  0  0  0  0  0  0  0
    4.4227    0.4982   -0.7868 H   0  0  0  0  0  0  0  0  0  0  0  0
    5.0825   -1.7642    0.0453 H   0  0  0  0  0  0  0  0  0  0  0  0
   -0.7695    1.2565   -0.7405 H   0  0  0  0  0  0  0  0  0  0  0  0
   -0.6258   -0.0210   -2.0119 H   0  0  0  0  0  0  0  0  0  0  0  0
  1  2  1  0
  2  3  1  0
  2  4  1  0
  4  5  1  0
  5  6  1  0
  6  7  1  0
  7  8  1  0
  8  9  1  0
  9 10  1  0
  9 11  1  0
 11 12  1  0
  7 13  1  0
 13  4  1  0
  1 14  1  0
  1 15  1  0
  1 16  1  0
  3 17  1  0
  3 18  1  0
  3 19  1  0
  4 20  1  6
  5 21  1  0
  5 22  1  0
  6 23  1  0
  6 24  1  0
  8 25  1  0
  8 26  1  0
  9 27  1  1
 10 28  1  0
 10 29  1  0
 11 30  1  0
 11 31  1  0
 12 32  1  0
 13 33  1  0
 13 34  1  0
M  END
$$$$

     RDKit          3D

 34 34  0  0  0  0  0  0  0  0999 V2000
    3.7430   -0.9418    0.8276 C   0  0  0  0  0  0  0  0  0  0  0  0
    2.6747    0.0743    0.8985 N   0  0  0  0  0  0  0  0  0  0  0  0
    3.3830    1.3304    0.6367 C   0  0  0  0  0  0  0  0  0  0  0  0
    1.7286   -0.2122   -0.1246 C   0  0  2  0  0  0  0  0  0  0  0  0
    1.2648    1.0157   -0.8925 C   0  0  0  0  0  0  0  0  0  0  0  0
    0.0053    0.3620   -1.5116 C   0  0  0  0  0  0  0  0  0  0  0  0
   -0.6469    0.0755   -0.1761 N   0  0  0  0  0  0  0  0  0  0  0  0
   -1.8614   -0.6276   -0.5257 C   0  0  0  0  0  0  0  0  0  0  0  0
   -2.8958   -0.5235    0.5795 C   0  0  2  0  0  0  0  0  0  0  0  0
   -4.0705   -1.2778    0.1654 N   0  0  0  0  0  0  0  0  0  0  0  0
   -3.1939    0.9129    0.9116 C   0  0  0  0  0  0  0  0  0  0  0  0
   -3.7338    1.6047   -0.1787 O   0  0  0  0  0  0  0  0  0  0  0  0
    0.4062   -0.8017    0.3372 C   0  0  0  0  0  0  0  0  0  0  0  0
    3.9267   -1.2493   -0.2103 H   0  0  0  0  0  0  0  0  0  0  0  0
    3.4256   -1.8054    1.4090 H   0  0  0  0  0  0  0  0  0  0  0  0
    4.6467   -0.4677    1.2367 H   0  0  0  0  0  0  0  0  0  0  0  0
    4.2995    1.1300    0.0312 H   0  0  0  0  0  0  0  0  0  0  0  0
    3.7180    1.7325    1.5959 H   0  0  0  0  0  0  0  0  0  0  0  0
    2.8011    2.0850    0.1240 H   0  0  0  0  0  0  0  0  0  0  0  0
    2.1797   -0.8736   -0.9298 H   0  0  0  0  0  0  0  0  0  0  0  0
    0.8654    1.7522   -0.1452 H   0  0  0  0  0  0  0  0  0  0  0  0
    1.9482    1.4053   -1.6217 H   0  0  0  0  0  0  0  0  0  0  0  0
    0.2856   -0.5949   -1.9270 H   0  0  0  0  0  0  0  0  0  0  0  0
   -0.5780    1.0612   -2.1054 H   0  0  0  0  0  0  0  0  0  0  0  0
   -2.2993   -0.3030   -1.4709 H   0  0  0  0  0  0  0  0  0  0  0  0
   -1.5957   -1.7321   -0.6292 H   0  0  0  0  0  0  0  0  0  0  0  0
   -2.4940   -1.0042    1.4763 H   0  0  0  0  0  0  0  0  0  0  0  0
   -4.8494   -0.7042   -0.1911 H   0  0  0  0  0  0  0  0  0  0  0  0
   -3.7784   -2.0294   -0.4906 H   0  0  0  0  0  0  0  0  0  0  0  0
   -3.9699    0.9271    1.6965 H   0  0  0  0  0  0  0  0  0  0  0  0
   -2.2883    1.3951    1.2642 H   0  0  0  0  0  0  0  0  0  0  0  0
   -3.7049    1.0685   -1.0088 H   0  0  0  0  0  0  0  0  0  0  0  0
    0.3682   -0.9831    1.4007 H   0  0  0  0  0  0  0  0  0  0  0  0
    0.2894   -1.8010   -0.1624 H   0  0  0  0  0  0  0  0  0  0  0  0
  1  2  1  0
  2  3  1  0
  2  4  1  0
  4  5  1  0
  5  6  1  0
  6  7  1  0
  7  8  1  0
  8  9  1  0
  9 10  1  0
  9 11  1  0
 11 12  1  0
  7 13  1  0
 13  4  1  0
  1 14  1  0
  1 15  1  0
  1 16  1  0
  3 17  1  0
  3 18  1  0
  3 19  1  0
  4 20  1  6
  5 21  1  0
  5 22  1  0
  6 23  1  0
  6 24  1  0
  8 25  1  0
  8 26  1  0
  9 27  1  1
 10 28  1  0
 10 29  1  0
 11 30  1  0
 11 31  1  0
 12 32  1  0
 13 33  1  0
 13 34  1  0
M  END
$$$$

     RDKit          3D

 34 34  0  0  0  0  0  0  0  0999 V2000
    3.2734    1.3257    0.2708 C   0  0  0  0  0  0  0  0  0  0  0  0
    3.1649   -0.0421   -0.0141 N   0  0  0  0  0  0  0  0  0  0  0  0
    3.8847   -0.8914    0.9237 C   0  0  0  0  0  0  0  0  0  0  0  0
    1.8990   -0.5903   -0.2865 C   0  0  2  0  0  0  0  0  0  0  0  0
    1.2237   -0.0326   -1.5177 C   0  0  0  0  0  0  0  0  0  0  0  0
   -0.1535   -0.6927   -1.3395 C   0  0  0  0  0  0  0  0  0  0  0  0
   -0.4132   -0.5125    0.0440 N   0  0  0  0  0  0  0  0  0  0  0  0
   -1.4299    0.3821    0.4346 C   0  0  0  0  0  0  0  0  0  0  0  0
   -2.7966   -0.1341    0.1055 C   0  0  2  0  0  0  0  0  0  0  0  0
   -3.0386   -0.3665   -1.2804 N   0  0  0  0  0  0  0  0  0  0  0  0
   -3.8944    0.8394    0.5718 C   0  0  0  0  0  0  0  0  0  0  0  0
   -5.1419    0.2189    0.3637 O   0  0  0  0  0  0  0  0  0  0  0  0
    0.8409   -0.4024    0.7521 C   0  0  0  0  0  0  0  0  0  0  0  0
    3.7939    1.4501    1.2480 H   0  0  0  0  0  0  0  0  0  0  0  0
    2.3502    1.9216    0.2231 H   0  0  0  0  0  0  0  0  0  0  0  0
    3.9816    1.7993   -0.4714 H   0  0  0  0  0  0  0  0  0  0  0  0
    3.4584   -0.7009    1.9354 H   0  0  0  0  0  0  0  0  0  0  0  0
    3.6618   -1.9369    0.6357 H   0  0  0  0  0  0  0  0  0  0  0  0
    4.9600   -0.6692    0.9339 H   0  0  0  0  0  0  0  0  0  0  0  0
    2.0031   -1.6804   -0.4586 H   0  0  0  0  0  0  0  0  0  0  0  0
    1.0799    1.0624   -1.4392 H   0  0  0  0  0  0  0  0  0  0  0  0
    1.7186   -0.3592   -2.4525 H   0  0  0  0  0  0  0  0  0  0  0  0
    0.0215   -1.7836   -1.5018 H   0  0  0  0  0  0  0  0  0  0  0  0
   -0.8722   -0.2712   -2.0460 H   0  0  0  0  0  0  0  0  0  0  0  0
   -1.3385    0.6376    1.5229 H   0  0  0  0  0  0  0  0  0  0  0  0
   -1.3023    1.3635   -0.1285 H   0  0  0  0  0  0  0  0  0  0  0  0
   -3.0226   -1.0834    0.6865 H   0  0  0  0  0  0  0  0  0  0  0  0
   -3.0834    0.5405   -1.8240 H   0  0  0  0  0  0  0  0  0  0  0  0
   -3.9504   -0.8814   -1.3820 H   0  0  0  0  0  0  0  0  0  0  0  0
   -3.6970    1.0351    1.6431 H   0  0  0  0  0  0  0  0  0  0  0  0
   -3.8102    1.7923    0.0194 H   0  0  0  0  0  0  0  0  0  0  0  0
   -5.1774   -0.5477    0.9982 H   0  0  0  0  0  0  0  0  0  0  0  0
    0.8792   -1.2821    1.4587 H   0  0  0  0  0  0  0  0  0  0  0  0
    0.9273    0.4924    1.3712 H   0  0  0  0  0  0  0  0  0  0  0  0
  1  2  1  0
  2  3  1  0
  2  4  1  0
  4  5  1  0
  5  6  1  0
  6  7  1  0
  7  8  1  0
  8  9  1  0
  9 10  1  0
  9 11  1  0
 11 12  1  0
  7 13  1  0
 13  4  1  0
  1 14  1  0
  1 15  1  0
  1 16  1  0
  3 17  1  0
  3 18  1  0
  3 19  1  0
  4 20  1  6
  5 21  1  0
  5 22  1  0
  6 23  1  0
  6 24  1  0
  8 25  1  0
  8 26  1  0
  9 27  1  1
 10 28  1  0
 10 29  1  0
 11 30  1  0
 11 31  1  0
 12 32  1  0
 13 33  1  0
 13 34  1  0
M  END
$$$$

     RDKit          3D

 34 34  0  0  0  0  0  0  0  0999 V2000
   -2.5440   -1.9043   -0.2246 C   0  0  0  0  0  0  0  0  0  0  0  0
   -2.5285   -0.7805    0.6298 N   0  0  0  0  0  0  0  0  0  0  0  0
   -3.8438   -0.1618    0.6072 C   0  0  0  0  0  0  0  0  0  0  0  0
   -1.5590    0.2097    0.4092 C   0  0  2  0  0  0  0  0  0  0  0  0
   -1.6627    0.8717   -0.9664 C   0  0  0  0  0  0  0  0  0  0  0  0
   -0.3883    1.6916   -0.8801 C   0  0  0  0  0  0  0  0  0  0  0  0
    0.5850    0.6212   -0.5697 N   0  0  0  0  0  0  0  0  0  0  0  0
    1.6771    1.3269    0.0908 C   0  0  0  0  0  0  0  0  0  0  0  0
    2.9054    0.4946    0.2649 C   0  0  2  0  0  0  0  0  0  0  0  0
    3.4139    0.0587   -1.0503 N   0  0  0  0  0  0  0  0  0  0  0  0
    2.7925   -0.6572    1.2025 C   0  0  0  0  0  0  0  0  0  0  0  0
    4.0894   -1.2181    1.3184 O   0  0  0  0  0  0  0  0  0  0  0  0
   -0.1312   -0.2145    0.4121 C   0  0  0  0  0  0  0  0  0  0  0  0
   -1.6803   -2.0612   -0.8600 H   0  0  0  0  0  0  0  0  0  0  0  0
   -3.4365   -1.8999   -0.9167 H   0  0  0  0  0  0  0  0  0  0  0  0
   -2.6840   -2.8281    0.4080 H   0  0  0  0  0  0  0  0  0  0  0  0
   -4.0487    0.1117   -0.4476 H   0  0  0  0  0  0  0  0  0  0  0  0
   -4.6385   -0.8415    0.9750 H   0  0  0  0  0  0  0  0  0  0  0  0
   -3.8080    0.7989    1.1703 H   0  0  0  0  0  0  0  0  0  0  0  0
   -1.6815    1.0166    1.1639 H   0  0  0  0  0  0  0  0  0  0  0  0
   -2.5682    1.4490   -1.1018 H   0  0  0  0  0  0  0  0  0  0  0  0
   -1.5029    0.1188   -1.7653 H   0  0  0  0  0  0  0  0  0  0  0  0
   -0.4530    2.3314   -0.0026 H   0  0  0  0  0  0  0  0  0  0  0  0
   -0.1235    2.1837   -1.8300 H   0  0  0  0  0  0  0  0  0  0  0  0
    1.3716    1.7799    1.0429 H   0  0  0  0  0  0  0  0  0  0  0  0
    1.9442    2.1725   -0.5744 H   0  0  0  0  0  0  0  0  0  0  0  0
    3.6944    1.1647    0.6696 H   0  0  0  0  0  0  0  0  0  0  0  0
    4.4507    0.1788   -1.0823 H   0  0  0  0  0  0  0  0  0  0  0  0
    3.2256   -0.9458   -1.1474 H   0  0  0  0  0  0  0  0  0  0  0  0
    2.1654   -1.4818    0.8803 H   0  0  0  0  0  0  0  0  0  0  0  0
    2.5483   -0.2601    2.2157 H   0  0  0  0  0  0  0  0  0  0  0  0
    4.1929   -2.0107    0.7009 H   0  0  0  0  0  0  0  0  0  0  0  0
   -0.0883   -1.2705    0.0949 H   0  0  0  0  0  0  0  0  0  0  0  0
    0.3147   -0.0444    1.4144 H   0  0  0  0  0  0  0  0  0  0  0  0
  1  2  1  0
  2  3  1  0
  2  4  1  0
  4  5  1  0
  5  6  1  0
  6  7  1  0
  7  8  1  0
  8  9  1  0
  9 10  1  0
  9 11  1  0
 11 12  1  0
  7 13  1  0
 13  4  1  0
  1 14  1  0
  1 15  1  0
  1 16  1  0
  3 17  1  0
  3 18  1  0
  3 19  1  0
  4 20  1  1
  5 21  1  0
  5 22  1  0
  6 23  1  0
  6 24  1  0
  8 25  1  0
  8 26  1  0
  9 27  1  1
 10 28  1  0
 10 29  1  0
 11 30  1  0
 11 31  1  0
 12 32  1  0
 13 33  1  0
 13 34  1  0
M  END
$$$$
