
     RDKit          3D

 25 25  0  0  0  0  0  0  0  0999 V2000
   -2.5152   -1.9582   -0.2178 N   0  0  0  0  0  0  0  0  0  0  0  0
   -2.6293   -0.5485   -0.1290 C   0  0  0  0  0  0  0  0  0  0  0  0
   -3.8546    0.0786   -0.1150 C   0  0  0  0  0  0  0  0  0  0  0  0
   -3.8773    1.4309   -0.0280 N   0  0  0  0  0  0  0  0  0  0  0  0
   -2.7375    2.1504    0.0434 C   0  0  0  0  0  0  0  0  0  0  0  0
   -1.5680    1.5068    0.0271 N   0  0  0  0  0  0  0  0  0  0  0  0
   -1.4590    0.1776   -0.0565 C   0  0  0  0  0  0  0  0  0  0  0  0
   -0.1888   -0.4581   -0.0701 N   0  0  0  0  0  0  0  0  0  0  0  0
    1.0119    0.3497    0.0084 C   0  0  0  0  0  0  0  0  0  0  0  0
    2.2519   -0.4989   -0.0196 C   0  0  2  0  0  0  0  0  0  0  0  0
    2.2285   -1.3681    1.0648 O   0  0  0  0  0  0  0  0  0  0  0  0
    3.4517    0.4240    0.0650 C   0  0  0  0  0  0  0  0  0  0  0  0
    3.4563    1.2806   -1.0231 O   0  0  0  0  0  0  0  0  0  0  0  0
   -2.2938   -2.4327   -1.1303 H   0  0  0  0  0  0  0  0  0  0  0  0
   -2.6556   -2.5394    0.6499 H   0  0  0  0  0  0  0  0  0  0  0  0
   -4.7521   -0.4975   -0.1719 H   0  0  0  0  0  0  0  0  0  0  0  0
   -2.8036    3.2205    0.1112 H   0  0  0  0  0  0  0  0  0  0  0  0
   -0.0797   -1.4878   -0.1344 H   0  0  0  0  0  0  0  0  0  0  0  0
    1.0465    1.1291   -0.7941 H   0  0  0  0  0  0  0  0  0  0  0  0
    0.9597    0.8726    1.0055 H   0  0  0  0  0  0  0  0  0  0  0  0
    2.2610   -1.0570   -0.9742 H   0  0  0  0  0  0  0  0  0  0  0  0
    2.6189   -2.2363    0.8401 H   0  0  0  0  0  0  0  0  0  0  0  0
    4.3480   -0.2139    0.0707 H   0  0  0  0  0  0  0  0  0  0  0  0
    3.4391    1.0099    1.0034 H   0  0  0  0  0  0  0  0  0  0  0  0
    4.3409    1.6655   -1.2115 H   0  0  0  0  0  0  0  0  0  0  0  0
  1  2  1  0
  2  3  2  0
  3  4  1  0
  4  5  2  0
  5  6  1  0
  6  7  2  0
  7  8  1  0
  8  9  1  0
  9 10  1  0
 10 11  1  0
 10 12  1  0
 12 13  1  0
  7  2  1  0
  1 14  1  0
  1 15  1  0
  3 16  1  0
  5 17  1  0
  8 18  1  0
  9 19  1  0
  9 20  1  0
 10 21  1  6
 11 22  1  0
 12 23  1  0
 12 24  1  0
 13 25  1  0
M  END
$$$$

     RDKit          3D

 25 25  0  0  0  0  0  0  0  0999 V2000
    3.0755   -0.7095   -1.0610 N   0  0  0  0  0  0  0  0  0  0  0  0
    2.5191    0.1232   -0.0503 C   0  0  0  0  0  0  0  0  0  0  0  0
    3.3702    0.6315    0.9161 C   0  0  0  0  0  0  0  0  0  0  0  0
    2.8548    1.4149    1.8693 N   0  0  0  0  0  0  0  0  0  0  0  0
    1.5482    1.7222    1.9192 C   0  0  0  0  0  0  0  0  0  0  0  0
    0.7358    1.2097    0.9585 N   0  0  0  0  0  0  0  0  0  0  0  0
    1.1890    0.4181   -0.0247 C   0  0  0  0  0  0  0  0  0  0  0  0
    0.3277   -0.1047   -1.0208 N   0  0  0  0  0  0  0  0  0  0  0  0
   -1.0845    0.1888   -1.0144 C   0  0  0  0  0  0  0  0  0  0  0  0
   -1.7751   -0.3207    0.2234 C   0  0  2  0  0  0  0  0  0  0  0  0
   -1.5945   -1.7017    0.2583 O   0  0  0  0  0  0  0  0  0  0  0  0
   -3.2547   -0.0282    0.2137 C   0  0  0  0  0  0  0  0  0  0  0  0
   -3.9080   -0.5778   -0.8810 O   0  0  0  0  0  0  0  0  0  0  0  0
    3.6620   -1.5426   -0.8623 H   0  0  0  0  0  0  0  0  0  0  0  0
    2.8625   -0.4394   -2.0501 H   0  0  0  0  0  0  0  0  0  0  0  0
    4.4220    0.3892    0.8830 H   0  0  0  0  0  0  0  0  0  0  0  0
    1.1386    2.3568    2.6938 H   0  0  0  0  0  0  0  0  0  0  0  0
    0.7146   -0.7098   -1.7698 H   0  0  0  0  0  0  0  0  0  0  0  0
   -1.5373   -0.2564   -1.9153 H   0  0  0  0  0  0  0  0  0  0  0  0
   -1.1840    1.3023   -1.1147 H   0  0  0  0  0  0  0  0  0  0  0  0
   -1.3602    0.1413    1.1297 H   0  0  0  0  0  0  0  0  0  0  0  0
   -2.0044   -2.1217    1.0623 H   0  0  0  0  0  0  0  0  0  0  0  0
   -3.6949   -0.4545    1.1356 H   0  0  0  0  0  0  0  0  0  0  0  0
   -3.4550    1.0626    0.2165 H   0  0  0  0  0  0  0  0  0  0  0  0
   -3.5673   -0.2173   -1.7151 H   0  0  0  0  0  0  0  0  0  0  0  0
  1  2  1  0
  2  3  2  0
  3  4  1  0
  4  5  2  0
  5  6  1  0
  6  7  2  0
  7  8  1  0
  8  9  1  0
  9 10  1  0
 10 11  1  0
 10 12  1  0
 12 13  1  0
  7  2  1  0
  1 14  1  0
  1 15  1  0
  3 16  1  0
  5 17  1  0
  8 18  1  0
  9 19  1  0
  9 20  1  0
 10 21  1  1
 11 22  1  0
 12 23  1  0
 12 24  1  0
 13 25  1  0
M  END
$$$$

     RDKit          3D

 25 25  0  0  0  0  0  0  0  0999 V2000
   -2.6338   -0.6207   -1.2176 N   0  0  0  0  0  0  0  0  0  0  0  0
   -2.2064    0.0481   -0.0482 C   0  0  0  0  0  0  0  0  0  0  0  0
   -3.0702    0.9460    0.5738 C   0  0  0  0  0  0  0  0  0  0  0  0
   -2.6781    1.5848    1.6800 N   0  0  0  0  0  0  0  0  0  0  0  0
   -1.4366    1.3507    2.1878 C   0  0  0  0  0  0  0  0  0  0  0  0
   -0.5892    0.4703    1.5783 N   0  0  0  0  0  0  0  0  0  0  0  0
   -0.9531   -0.1864    0.4669 C   0  0  0  0  0  0  0  0  0  0  0  0
   -0.0627   -1.1185   -0.1104 N   0  0  0  0  0  0  0  0  0  0  0  0
    1.2652   -1.4014    0.3196 C   0  0  0  0  0  0  0  0  0  0  0  0
    2.3000   -0.5365   -0.3361 C   0  0  2  0  0  0  0  0  0  0  0  0
    3.5444   -0.9075    0.2491 O   0  0  0  0  0  0  0  0  0  0  0  0
    2.1174    0.9243   -0.2065 C   0  0  0  0  0  0  0  0  0  0  0  0
    0.9626    1.3394   -0.8411 O   0  0  0  0  0  0  0  0  0  0  0  0
   -2.5135   -0.1277   -2.1271 H   0  0  0  0  0  0  0  0  0  0  0  0
   -3.0586   -1.5730   -1.2094 H   0  0  0  0  0  0  0  0  0  0  0  0
   -4.0569    1.1118    0.1432 H   0  0  0  0  0  0  0  0  0  0  0  0
   -1.1325    1.8743    3.0832 H   0  0  0  0  0  0  0  0  0  0  0  0
   -0.4129   -1.6633   -0.9459 H   0  0  0  0  0  0  0  0  0  0  0  0
    1.5508   -2.4748    0.1113 H   0  0  0  0  0  0  0  0  0  0  0  0
    1.2894   -1.2679    1.4379 H   0  0  0  0  0  0  0  0  0  0  0  0
    2.3511   -0.8708   -1.4099 H   0  0  0  0  0  0  0  0  0  0  0  0
    3.7031   -1.8731    0.1464 H   0  0  0  0  0  0  0  0  0  0  0  0
    2.0786    1.2453    0.8742 H   0  0  0  0  0  0  0  0  0  0  0  0
    2.9586    1.4661   -0.7257 H   0  0  0  0  0  0  0  0  0  0  0  0
    0.6832    2.2606   -0.5602 H   0  0  0  0  0  0  0  0  0  0  0  0
  1  2  1  0
  2  3  2  0
  3  4  1  0
  4  5  2  0
  5  6  1  0
  6  7  2  0
  7  8  1  0
  8  9  1  0
  9 10  1  0
 10 11  1  0
 10 12  1  0
 12 13  1  0
  7  2  1  0
  1 14  1  0
  1 15  1  0
  3 16  1  0
  5 17  1  0
  8 18  1  0
  9 19  1  0
  9 20  1  0
 10 21  1  6
 11 22  1  0
 12 23  1  0
 12 24  1  0
 13 25  1  0
M  END
$$$$

     RDKit          3D

 25 25  0  0  0  0  0  0  0  0999 V2000
   -1.5439    1.8610   -1.8300 N   0  0  0  0  0  0  0  0  0  0  0  0
   -2.2631    1.0336   -0.9483 C   0  0  0  0  0  0  0  0  0  0  0  0
   -3.6614    1.0268   -0.9037 C   0  0  0  0  0  0  0  0  0  0  0  0
   -4.2883    0.2142   -0.0399 N   0  0  0  0  0  0  0  0  0  0  0  0
   -3.5994   -0.5942    0.7843 C   0  0  0  0  0  0  0  0  0  0  0  0
   -2.2632   -0.5677    0.7209 N   0  0  0  0  0  0  0  0  0  0  0  0
   -1.5539    0.2154   -0.1145 C   0  0  0  0  0  0  0  0  0  0  0  0
   -0.1406    0.1902   -0.1261 N   0  0  0  0  0  0  0  0  0  0  0  0
    0.7252   -0.5833    0.6570 C   0  0  0  0  0  0  0  0  0  0  0  0
    2.1670   -0.2937    0.3161 C   0  0  2  0  0  0  0  0  0  0  0  0
    2.4578   -0.5680   -1.0117 O   0  0  0  0  0  0  0  0  0  0  0  0
    3.1334   -1.0929    1.1616 C   0  0  0  0  0  0  0  0  0  0  0  0
    4.4126   -0.6947    0.8378 O   0  0  0  0  0  0  0  0  0  0  0  0
   -1.8282    2.8634   -1.8911 H   0  0  0  0  0  0  0  0  0  0  0  0
   -0.7475    1.5744   -2.4357 H   0  0  0  0  0  0  0  0  0  0  0  0
   -4.1652    1.6952   -1.5869 H   0  0  0  0  0  0  0  0  0  0  0  0
   -4.1176   -1.2554    1.4874 H   0  0  0  0  0  0  0  0  0  0  0  0
    0.3254    0.8323   -0.8079 H   0  0  0  0  0  0  0  0  0  0  0  0
    0.5891   -0.2744    1.7368 H   0  0  0  0  0  0  0  0  0  0  0  0
    0.6022   -1.6683    0.6518 H   0  0  0  0  0  0  0  0  0  0  0  0
    2.4071    0.7778    0.4817 H   0  0  0  0  0  0  0  0  0  0  0  0
    2.9899   -1.4111   -1.1001 H   0  0  0  0  0  0  0  0  0  0  0  0
    3.0321   -2.1793    0.9919 H   0  0  0  0  0  0  0  0  0  0  0  0
    2.9070   -0.8413    2.2259 H   0  0  0  0  0  0  0  0  0  0  0  0
    4.4234   -0.2600   -0.0364 H   0  0  0  0  0  0  0  0  0  0  0  0
  1  2  1  0
  2  3  2  0
  3  4  1  0
  4  5  2  0
  5  6  1  0
  6  7  2  0
  7  8  1  0
  8  9  1  0
  9 10  1  0
 10 11  1  0
 10 12  1  0
 12 13  1  0
  7  2  1  0
  1 14  1  0
  1 15  1  0
  3 16  1  0
  5 17  1  0
  8 18  1  0
  9 19  1  0
  9 20  1  0
 10 21  1  6
 11 22  1  0
 12 23  1  0
 12 24  1  0
 13 25  1  0
M  END
$$$$

     RDKit          3D

 25 25  0  0  0  0  0  0  0  0999 V2000
   -1.8182   -2.1346   -0.3570 N   0  0  0  0  0  0  0  0  0  0  0  0
   -2.2559   -0.8298   -0.0648 C   0  0  0  0  0  0  0  0  0  0  0  0
   -3.5927   -0.5874    0.1233 C   0  0  0  0  0  0  0  0  0  0  0  0
   -4.0312    0.6470    0.4024 N   0  0  0  0  0  0  0  0  0  0  0  0
   -3.1682    1.6731    0.5035 C   0  0  0  0  0  0  0  0  0  0  0  0
   -1.8545    1.4373    0.3191 N   0  0  0  0  0  0  0  0  0  0  0  0
   -1.3631    0.2206    0.0377 C   0  0  0  0  0  0  0  0  0  0  0  0
    0.0254    0.0379   -0.1447 N   0  0  0  0  0  0  0  0  0  0  0  0
    0.9306    1.1445   -0.0330 C   0  0  0  0  0  0  0  0  0  0  0  0
    2.3602    0.6960   -0.2697 C   0  0  2  0  0  0  0  0  0  0  0  0
    2.4672    0.1591   -1.5318 O   0  0  0  0  0  0  0  0  0  0  0  0
    2.7803   -0.3360    0.7529 C   0  0  0  0  0  0  0  0  0  0  0  0
    4.1047   -0.6710    0.4670 O   0  0  0  0  0  0  0  0  0  0  0  0
   -2.3396   -2.9659    0.0040 H   0  0  0  0  0  0  0  0  0  0  0  0
   -0.9723   -2.3222   -0.9345 H   0  0  0  0  0  0  0  0  0  0  0  0
   -4.2848   -1.4155    0.0413 H   0  0  0  0  0  0  0  0  0  0  0  0
   -3.4728    2.6907    0.7275 H   0  0  0  0  0  0  0  0  0  0  0  0
    0.3820   -0.9073   -0.3605 H   0  0  0  0  0  0  0  0  0  0  0  0
    0.9185    1.6043    0.9828 H   0  0  0  0  0  0  0  0  0  0  0  0
    0.6427    1.9534   -0.7322 H   0  0  0  0  0  0  0  0  0  0  0  0
    2.9894    1.6190   -0.1867 H   0  0  0  0  0  0  0  0  0  0  0  0
    2.0887   -0.7448   -1.5282 H   0  0  0  0  0  0  0  0  0  0  0  0
    2.7649    0.1224    1.7721 H   0  0  0  0  0  0  0  0  0  0  0  0
    2.1255   -1.2093    0.6564 H   0  0  0  0  0  0  0  0  0  0  0  0
    4.5732    0.1187    0.0499 H   0  0  0  0  0  0  0  0  0  0  0  0
  1  2  1  0
  2  3  2  0
  3  4  1  0
  4  5  2  0
  5  6  1  0
  6  7  2  0
  7  8  1  0
  8  9  1  0
  9 10  1  0
 10 11  1  0
 10 12  1  0
 12 13  1  0
  7  2  1  0
  1 14  1  0
  1 15  1  0
  3 16  1  0
  5 17  1  0
  8 18  1  0
  9 19  1  0
  9 20  1  0
 10 21  1  6
 11 22  1  0
 12 23  1  0
 12 24  1  0
 13 25  1  0
M  END
$$$$

     RDKit          3D

 25 25  0  0  0  0  0  0  0  0999 V2000
    0.5821    2.2075   -2.2963 N   0  0  0  0  0  0  0  0  0  0  0  0
    1.5487    1.7357   -1.3736 C   0  0  0  0  0  0  0  0  0  0  0  0
    2.8505    2.2310   -1.3940 C   0  0  0  0  0  0  0  0  0  0  0  0
    3.7848    1.8055   -0.5363 N   0  0  0  0  0  0  0  0  0  0  0  0
    3.4518    0.8779    0.3636 C   0  0  0  0  0  0  0  0  0  0  0  0
    2.2186    0.3958    0.3973 N   0  0  0  0  0  0  0  0  0  0  0  0
    1.2280    0.7781   -0.4351 C   0  0  0  0  0  0  0  0  0  0  0  0
   -0.0802    0.2197   -0.3468 N   0  0  0  0  0  0  0  0  0  0  0  0
   -0.4467   -0.7732    0.6123 C   0  0  0  0  0  0  0  0  0  0  0  0
   -1.8975   -1.1561    0.4460 C   0  0  2  0  0  0  0  0  0  0  0  0
   -2.6589    0.0191    0.6419 O   0  0  0  0  0  0  0  0  0  0  0  0
   -2.3528   -2.1487    1.4751 C   0  0  0  0  0  0  0  0  0  0  0  0
   -1.6853   -3.3519    1.3966 O   0  0  0  0  0  0  0  0  0  0  0  0
    0.5131    1.8059   -3.2487 H   0  0  0  0  0  0  0  0  0  0  0  0
   -0.0696    2.9641   -2.0250 H   0  0  0  0  0  0  0  0  0  0  0  0
    3.1116    2.9839   -2.1283 H   0  0  0  0  0  0  0  0  0  0  0  0
    4.1671    0.4813    1.0994 H   0  0  0  0  0  0  0  0  0  0  0  0
   -0.7926    0.5671   -1.0264 H   0  0  0  0  0  0  0  0  0  0  0  0
    0.1435   -1.7150    0.5348 H   0  0  0  0  0  0  0  0  0  0  0  0
   -0.3461   -0.3793    1.6555 H   0  0  0  0  0  0  0  0  0  0  0  0
   -2.1051   -1.5137   -0.5791 H   0  0  0  0  0  0  0  0  0  0  0  0
   -3.6363   -0.2219    0.7167 H   0  0  0  0  0  0  0  0  0  0  0  0
   -3.4387   -2.3301    1.2910 H   0  0  0  0  0  0  0  0  0  0  0  0
   -2.2771   -1.6699    2.4864 H   0  0  0  0  0  0  0  0  0  0  0  0
   -1.8131   -3.8127    2.2730 H   0  0  0  0  0  0  0  0  0  0  0  0
  1  2  1  0
  2  3  2  0
  3  4  1  0
  4  5  2  0
  5  6  1  0
  6  7  2  0
  7  8  1  0
  8  9  1  0
  9 10  1  0
 10 11  1  0
 10 12  1  0
 12 13  1  0
  7  2  1  0
  1 14  1  0
  1 15  1  0
  3 16  1  0
  5 17  1  0
  8 18  1  0
  9 19  1  0
  9 20  1  0
 10 21  1  6
 11 22  1  0
 12 23  1  0
 12 24  1  0
 13 25  1  0
M  END
$$$$

     RDKit          3D

 25 25  0  0  0  0  0  0  0  0999 V2000
   -2.2515   -1.4981    1.3898 N   0  0  0  0  0  0  0  0  0  0  0  0
   -2.0959   -0.7640    0.1679 C   0  0  0  0  0  0  0  0  0  0  0  0
   -2.9625   -0.9145   -0.8767 C   0  0  0  0  0  0  0  0  0  0  0  0
   -2.7748   -0.2003   -2.0093 N   0  0  0  0  0  0  0  0  0  0  0  0
   -1.7330    0.6450   -2.0782 C   0  0  0  0  0  0  0  0  0  0  0  0
   -0.8846    0.7994   -1.0694 N   0  0  0  0  0  0  0  0  0  0  0  0
   -1.0158    0.1196    0.0825 C   0  0  0  0  0  0  0  0  0  0  0  0
   -0.1381    0.3015    1.1866 N   0  0  0  0  0  0  0  0  0  0  0  0
    0.9841    1.1606    1.0989 C   0  0  0  0  0  0  0  0  0  0  0  0
    2.2695    0.5331    0.6413 C   0  0  2  0  0  0  0  0  0  0  0  0
    3.2056    1.5953    0.5970 O   0  0  0  0  0  0  0  0  0  0  0  0
    2.1926   -0.1548   -0.6854 C   0  0  0  0  0  0  0  0  0  0  0  0
    1.3240   -1.2332   -0.6451 O   0  0  0  0  0  0  0  0  0  0  0  0
   -1.9850   -2.4924    1.4136 H   0  0  0  0  0  0  0  0  0  0  0  0
   -2.6322   -0.9855    2.2089 H   0  0  0  0  0  0  0  0  0  0  0  0
   -3.7921   -1.6120   -0.7735 H   0  0  0  0  0  0  0  0  0  0  0  0
   -1.6059    1.2016   -2.9906 H   0  0  0  0  0  0  0  0  0  0  0  0
   -0.3598   -0.2296    2.0692 H   0  0  0  0  0  0  0  0  0  0  0  0
    1.1158    1.6498    2.1090 H   0  0  0  0  0  0  0  0  0  0  0  0
    0.7736    1.9943    0.3866 H   0  0  0  0  0  0  0  0  0  0  0  0
    2.6836   -0.1661    1.4120 H   0  0  0  0  0  0  0  0  0  0  0  0
    2.8469    2.2050   -0.1122 H   0  0  0  0  0  0  0  0  0  0  0  0
    1.8422    0.5585   -1.4754 H   0  0  0  0  0  0  0  0  0  0  0  0
    3.2212   -0.4924   -0.9953 H   0  0  0  0  0  0  0  0  0  0  0  0
    1.7720   -2.0208   -1.0524 H   0  0  0  0  0  0  0  0  0  0  0  0
  1  2  1  0
  2  3  2  0
  3  4  1  0
  4  5  2  0
  5  6  1  0
  6  7  2  0
  7  8  1  0
  8  9  1  0
  9 10  1  0
 10 11  1  0
 10 12  1  0
 12 13  1  0
  7  2  1  0
  1 14  1  0
  1 15  1  0
  3 16  1  0
  5 17  1  0
  8 18  1  0
  9 19  1  0
  9 20  1  0
 10 21  1  1
 11 22  1  0
 12 23  1  0
 12 24  1  0
 13 25  1  0
M  END
$$$$

     RDKit          3D

 25 25  0  0  0  0  0  0  0  0999 V2000
   -2.1115   -0.5985    1.7089 N   0  0  0  0  0  0  0  0  0  0  0  0
   -2.2340    0.3133    0.6453 C   0  0  0  0  0  0  0  0  0  0  0  0
   -3.3626    1.0617    0.4856 C   0  0  0  0  0  0  0  0  0  0  0  0
   -3.4602    1.9301   -0.5406 N   0  0  0  0  0  0  0  0  0  0  0  0
   -2.4639    2.0724   -1.4110 C   0  0  0  0  0  0  0  0  0  0  0  0
   -1.3535    1.3262   -1.2412 N   0  0  0  0  0  0  0  0  0  0  0  0
   -1.1951    0.4542   -0.2528 C   0  0  0  0  0  0  0  0  0  0  0  0
   -0.0000   -0.3006   -0.1310 N   0  0  0  0  0  0  0  0  0  0  0  0
    1.0535   -0.1087   -1.1035 C   0  0  0  0  0  0  0  0  0  0  0  0
    2.2475   -0.9869   -0.8254 C   0  0  2  0  0  0  0  0  0  0  0  0
    1.9570   -2.3242   -0.8433 O   0  0  0  0  0  0  0  0  0  0  0  0
    2.8077   -0.6218    0.5364 C   0  0  0  0  0  0  0  0  0  0  0  0
    3.0977    0.7346    0.5412 O   0  0  0  0  0  0  0  0  0  0  0  0
   -2.3301   -1.6131    1.5578 H   0  0  0  0  0  0  0  0  0  0  0  0
   -1.8076   -0.2733    2.6371 H   0  0  0  0  0  0  0  0  0  0  0  0
   -4.1945    0.9656    1.1836 H   0  0  0  0  0  0  0  0  0  0  0  0
   -2.5568    2.7802   -2.2381 H   0  0  0  0  0  0  0  0  0  0  0  0
    0.0763   -0.9720    0.6617 H   0  0  0  0  0  0  0  0  0  0  0  0
    0.6596   -0.3142   -2.1322 H   0  0  0  0  0  0  0  0  0  0  0  0
    1.3859    0.9492   -1.1211 H   0  0  0  0  0  0  0  0  0  0  0  0
    3.0263   -0.7665   -1.5665 H   0  0  0  0  0  0  0  0  0  0  0  0
    1.7454   -2.7124    0.0396 H   0  0  0  0  0  0  0  0  0  0  0  0
    3.6778   -1.2575    0.7869 H   0  0  0  0  0  0  0  0  0  0  0  0
    2.0109   -0.8196    1.2920 H   0  0  0  0  0  0  0  0  0  0  0  0
    3.3243    1.0816   -0.3612 H   0  0  0  0  0  0  0  0  0  0  0  0
  1  2  1  0
  2  3  2  0
  3  4  1  0
  4  5  2  0
  5  6  1  0
  6  7  2  0
  7  8  1  0
  8  9  1  0
  9 10  1  0
 10 11  1  0
 10 12  1  0
 12 13  1  0
  7  2  1  0
  1 14  1  0
  1 15  1  0
  3 16  1  0
  5 17  1  0
  8 18  1  0
  9 19  1  0
  9 20  1  0
 10 21  1  6
 11 22  1  0
 12 23  1  0
 12 24  1  0
 13 25  1  0
M  END
$$$$
