
     RDKit          3D

 18 18  0  0  0  0  0  0  0  0999 V2000
   -1.4386    1.4455    0.4427 N   0  0  0  0  0  0  0  0  0  0  0  0
   -1.2764    0.3174   -0.4502 C   0  0  2  0  0  0  0  0  0  0  0  0
   -1.8540   -0.9514    0.1312 C   0  0  0  0  0  0  0  0  0  0  0  0
   -3.1980   -0.8566    0.3928 O   0  0  0  0  0  0  0  0  0  0  0  0
    0.1630    0.1330   -0.6886 C   0  0  0  0  0  0  0  0  0  0  0  0
    0.7475   -0.0898   -1.8657 N   0  0  0  0  0  0  0  0  0  0  0  0
    2.0496   -0.1955   -1.6344 N   0  0  0  0  0  0  0  0  0  0  0  0
    2.2800   -0.0423   -0.3382 C   0  0  0  0  0  0  0  0  0  0  0  0
    3.5279   -0.0740    0.3921 C   0  0  0  0  0  0  0  0  0  0  0  0
    3.5820    0.0887    1.6220 O   0  0  0  0  0  0  0  0  0  0  0  0
    1.0933    0.1592    0.2194 O   0  0  0  0  0  0  0  0  0  0  0  0
   -1.0786    1.2304    1.4084 H   0  0  0  0  0  0  0  0  0  0  0  0
   -0.8847    2.2327    0.0256 H   0  0  0  0  0  0  0  0  0  0  0  0
   -1.8311    0.5708   -1.3846 H   0  0  0  0  0  0  0  0  0  0  0  0
   -1.6214   -1.7830   -0.5525 H   0  0  0  0  0  0  0  0  0  0  0  0
   -1.3297   -1.1739    1.0851 H   0  0  0  0  0  0  0  0  0  0  0  0
   -3.3677   -0.7651    1.3613 H   0  0  0  0  0  0  0  0  0  0  0  0
    4.4368   -0.2463   -0.1663 H   0  0  0  0  0  0  0  0  0  0  0  0
  1  2  1  0
  2  3  1  0
  3  4  1  0
  2  5  1  0
  5  6  2  0
  6  7  1  0
  7  8  2  0
  8  9  1  0
  9 10  2  0
  8 11  1  0
 11  5  1  0
  1 12  1  0
  1 13  1  0
  2 14  1  6
  3 15  1  0
  3 16  1  0
  4 17  1  0
  9 18  1  0
M  END
$$$$

     RDKit          3D

 18 18  0  0  0  0  0  0  0  0999 V2000
   -1.6710   -1.4232    1.0737 N   0  0  0  0  0  0  0  0  0  0  0  0
   -1.1397   -0.1139    0.7424 C   0  0  2  0  0  0  0  0  0  0  0  0
   -2.1027    0.5796   -0.2162 C   0  0  0  0  0  0  0  0  0  0  0  0
   -2.2688   -0.1312   -1.3754 O   0  0  0  0  0  0  0  0  0  0  0  0
    0.2176   -0.2162    0.1432 C   0  0  0  0  0  0  0  0  0  0  0  0
    0.6401   -1.0626   -0.8023 N   0  0  0  0  0  0  0  0  0  0  0  0
    1.9220   -0.8004   -1.0340 N   0  0  0  0  0  0  0  0  0  0  0  0
    2.3014    0.2139   -0.2298 C   0  0  0  0  0  0  0  0  0  0  0  0
    3.6304    0.8063   -0.1713 C   0  0  0  0  0  0  0  0  0  0  0  0
    3.8280    1.7432    0.6283 O   0  0  0  0  0  0  0  0  0  0  0  0
    1.2474    0.5370    0.4626 O   0  0  0  0  0  0  0  0  0  0  0  0
   -1.2001   -1.8228    1.9160 H   0  0  0  0  0  0  0  0  0  0  0  0
   -1.4810   -2.0821    0.2801 H   0  0  0  0  0  0  0  0  0  0  0  0
   -1.1004    0.4573    1.6921 H   0  0  0  0  0  0  0  0  0  0  0  0
   -1.6513    1.5674   -0.4868 H   0  0  0  0  0  0  0  0  0  0  0  0
   -3.0522    0.7868    0.2735 H   0  0  0  0  0  0  0  0  0  0  0  0
   -2.5582    0.4947   -2.1078 H   0  0  0  0  0  0  0  0  0  0  0  0
    4.4384    0.4662   -0.7882 H   0  0  0  0  0  0  0  0  0  0  0  0
  1  2  1  0
  2  3  1  0
  3  4  1  0
  2  5  1  0
  5  6  2  0
  6  7  1  0
  7  8  2  0
  8  9  1  0
  9 10  2  0
  8 11  1  0
 11  5  1  0
  1 12  1  0
  1 13  1  0
  2 14  1  1
  3 15  1  0
  3 16  1  0
  4 17  1  0
  9 18  1  0
M  END
$$$$

     RDKit          3D

 18 18  0  0  0  0  0  0  0  0999 V2000
    1.3630   -0.8020    1.7502 N   0  0  0  0  0  0  0  0  0  0  0  0
    1.1693   -0.8011    0.3148 C   0  0  2  0  0  0  0  0  0  0  0  0
    2.2142    0.0771   -0.3525 C   0  0  0  0  0  0  0  0  0  0  0  0
    2.1370    1.3862    0.0931 O   0  0  0  0  0  0  0  0  0  0  0  0
   -0.1711   -0.2200   -0.0381 C   0  0  0  0  0  0  0  0  0  0  0  0
   -0.4456    0.6730   -1.0029 N   0  0  0  0  0  0  0  0  0  0  0  0
   -1.7305    0.9054   -0.9669 N   0  0  0  0  0  0  0  0  0  0  0  0
   -2.2778    0.1668    0.0143 C   0  0  0  0  0  0  0  0  0  0  0  0
   -3.6882    0.1274    0.3934 C   0  0  0  0  0  0  0  0  0  0  0  0
   -4.5133    0.8436   -0.2374 O   0  0  0  0  0  0  0  0  0  0  0  0
   -1.2995   -0.5083    0.5612 O   0  0  0  0  0  0  0  0  0  0  0  0
    0.4343   -0.8740    2.2175 H   0  0  0  0  0  0  0  0  0  0  0  0
    1.8454    0.0411    2.0869 H   0  0  0  0  0  0  0  0  0  0  0  0
    1.2147   -1.8150   -0.1269 H   0  0  0  0  0  0  0  0  0  0  0  0
    3.2135   -0.3567   -0.2686 H   0  0  0  0  0  0  0  0  0  0  0  0
    1.9607    0.0998   -1.4466 H   0  0  0  0  0  0  0  0  0  0  0  0
    2.5997    1.5500    0.9383 H   0  0  0  0  0  0  0  0  0  0  0  0
   -4.0259   -0.4933    1.1889 H   0  0  0  0  0  0  0  0  0  0  0  0
  1  2  1  0
  2  3  1  0
  3  4  1  0
  2  5  1  0
  5  6  2  0
  6  7  1  0
  7  8  2  0
  8  9  1  0
  9 10  2  0
  8 11  1  0
 11  5  1  0
  1 12  1  0
  1 13  1  0
  2 14  1  6
  3 15  1  0
  3 16  1  0
  4 17  1  0
  9 18  1  0
M  END
$$$$

     RDKit          3D

 18 18  0  0  0  0  0  0  0  0999 V2000
   -1.6117   -1.4584    0.8539 N   0  0  0  0  0  0  0  0  0  0  0  0
   -1.0925   -0.1258    0.5632 C   0  0  2  0  0  0  0  0  0  0  0  0
   -2.0516    0.4965   -0.4430 C   0  0  0  0  0  0  0  0  0  0  0  0
   -3.3160    0.5533    0.1429 O   0  0  0  0  0  0  0  0  0  0  0  0
    0.2888   -0.1777    0.0197 C   0  0  0  0  0  0  0  0  0  0  0  0
    0.7587   -1.0071   -0.9302 N   0  0  0  0  0  0  0  0  0  0  0  0
    2.0416   -0.7584   -1.1552 N   0  0  0  0  0  0  0  0  0  0  0  0
    2.3708    0.2457   -0.3269 C   0  0  0  0  0  0  0  0  0  0  0  0
    3.6904    0.8529   -0.2272 C   0  0  0  0  0  0  0  0  0  0  0  0
    3.9475    1.7884    0.5624 O   0  0  0  0  0  0  0  0  0  0  0  0
    1.3190    0.5765    0.3615 O   0  0  0  0  0  0  0  0  0  0  0  0
   -1.9600   -1.8677   -0.0421 H   0  0  0  0  0  0  0  0  0  0  0  0
   -0.8218   -2.0636    1.1725 H   0  0  0  0  0  0  0  0  0  0  0  0
   -1.0819    0.4313    1.5049 H   0  0  0  0  0  0  0  0  0  0  0  0
   -1.6725    1.5009   -0.7315 H   0  0  0  0  0  0  0  0  0  0  0  0
   -2.1538   -0.1485   -1.3388 H   0  0  0  0  0  0  0  0  0  0  0  0
   -3.1650    0.6548    1.1228 H   0  0  0  0  0  0  0  0  0  0  0  0
    4.5099    0.5067   -0.8470 H   0  0  0  0  0  0  0  0  0  0  0  0
  1  2  1  0
  2  3  1  0
  3  4  1  0
  2  5  1  0
  5  6  2  0
  6  7  1  0
  7  8  2  0
  8  9  1  0
  9 10  2  0
  8 11  1  0
 11  5  1  0
  1 12  1  0
  1 13  1  0
  2 14  1  1
  3 15  1  0
  3 16  1  0
  4 17  1  0
  9 18  1  0
M  END
$$$$

     RDKit          3D

 18 18  0  0  0  0  0  0  0  0999 V2000
   -1.9114   -1.0747    0.3725 N   0  0  0  0  0  0  0  0  0  0  0  0
   -1.1387    0.1454    0.2398 C   0  0  2  0  0  0  0  0  0  0  0  0
   -1.7932    0.9884   -0.8360 C   0  0  0  0  0  0  0  0  0  0  0  0
   -3.1184    1.2794   -0.4483 O   0  0  0  0  0  0  0  0  0  0  0  0
    0.2337   -0.1960   -0.1972 C   0  0  0  0  0  0  0  0  0  0  0  0
    0.5037   -1.0739   -1.1761 N   0  0  0  0  0  0  0  0  0  0  0  0
    1.8038   -1.1403   -1.3069 N   0  0  0  0  0  0  0  0  0  0  0  0
    2.3721   -0.3046   -0.4117 C   0  0  0  0  0  0  0  0  0  0  0  0
    3.8074   -0.1065   -0.2571 C   0  0  0  0  0  0  0  0  0  0  0  0
    4.2509    0.6957    0.6069 O   0  0  0  0  0  0  0  0  0  0  0  0
    1.3855    0.2381    0.2299 O   0  0  0  0  0  0  0  0  0  0  0  0
   -2.2692   -1.3177   -0.5830 H   0  0  0  0  0  0  0  0  0  0  0  0
   -1.2763   -1.8162    0.6901 H   0  0  0  0  0  0  0  0  0  0  0  0
   -1.1456    0.6347    1.2311 H   0  0  0  0  0  0  0  0  0  0  0  0
   -1.2172    1.9398   -0.9453 H   0  0  0  0  0  0  0  0  0  0  0  0
   -1.8140    0.3862   -1.7563 H   0  0  0  0  0  0  0  0  0  0  0  0
   -3.1841    1.3639    0.5407 H   0  0  0  0  0  0  0  0  0  0  0  0
    4.5110   -0.6417   -0.8778 H   0  0  0  0  0  0  0  0  0  0  0  0
  1  2  1  0
  2  3  1  0
  3  4  1  0
  2  5  1  0
  5  6  2  0
  6  7  1  0
  7  8  2  0
  8  9  1  0
  9 10  2  0
  8 11  1  0
 11  5  1  0
  1 12  1  0
  1 13  1  0
  2 14  1  1
  3 15  1  0
  3 16  1  0
  4 17  1  0
  9 18  1  0
M  END
$$$$

     RDKit          3D

 18 18  0  0  0  0  0  0  0  0999 V2000
   -1.3790   -0.4186    1.7683 N   0  0  0  0  0  0  0  0  0  0  0  0
   -0.9871    0.3510    0.5923 C   0  0  2  0  0  0  0  0  0  0  0  0
   -2.0171    0.1008   -0.4717 C   0  0  0  0  0  0  0  0  0  0  0  0
   -3.2491    0.5208    0.0158 O   0  0  0  0  0  0  0  0  0  0  0  0
    0.3591   -0.1155    0.1224 C   0  0  0  0  0  0  0  0  0  0  0  0
    0.7662   -1.3882   -0.0114 N   0  0  0  0  0  0  0  0  0  0  0  0
    2.0113   -1.4314   -0.4489 N   0  0  0  0  0  0  0  0  0  0  0  0
    2.4009   -0.1438   -0.5953 C   0  0  0  0  0  0  0  0  0  0  0  0
    3.7260    0.2756   -1.0642 C   0  0  0  0  0  0  0  0  0  0  0  0
    3.9618    1.5021   -1.1561 O   0  0  0  0  0  0  0  0  0  0  0  0
    1.3905    0.6082   -0.2455 O   0  0  0  0  0  0  0  0  0  0  0  0
   -2.4129   -0.3629    1.8871 H   0  0  0  0  0  0  0  0  0  0  0  0
   -1.0635   -1.4024    1.6086 H   0  0  0  0  0  0  0  0  0  0  0  0
   -0.9377    1.4320    0.8207 H   0  0  0  0  0  0  0  0  0  0  0  0
   -1.8093    0.6439   -1.4127 H   0  0  0  0  0  0  0  0  0  0  0  0
   -2.0613   -0.9947   -0.6463 H   0  0  0  0  0  0  0  0  0  0  0  0
   -3.1942    1.2407    0.6746 H   0  0  0  0  0  0  0  0  0  0  0  0
    4.4956   -0.4175   -1.3298 H   0  0  0  0  0  0  0  0  0  0  0  0
  1  2  1  0
  2  3  1  0
  3  4  1  0
  2  5  1  0
  5  6  2  0
  6  7  1  0
  7  8  2  0
  8  9  1  0
  9 10  2  0
  8 11  1  0
 11  5  1  0
  1 12  1  0
  1 13  1  0
  2 14  1  1
  3 15  1  0
  3 16  1  0
  4 17  1  0
  9 18  1  0
M  END
$$$$

     RDKit          3D

 18 18  0  0  0  0  0  0  0  0999 V2000
   -1.1248    1.4170    0.7817 N   0  0  0  0  0  0  0  0  0  0  0  0
   -1.0906    0.4513   -0.2880 C   0  0  2  0  0  0  0  0  0  0  0  0
   -2.1845   -0.5812   -0.1592 C   0  0  0  0  0  0  0  0  0  0  0  0
   -3.4456   -0.0420   -0.1772 O   0  0  0  0  0  0  0  0  0  0  0  0
    0.2340   -0.2164   -0.2468 C   0  0  0  0  0  0  0  0  0  0  0  0
    0.4418   -1.5442   -0.3584 N   0  0  0  0  0  0  0  0  0  0  0  0
    1.7677   -1.7492   -0.2724 N   0  0  0  0  0  0  0  0  0  0  0  0
    2.3535   -0.5547   -0.1104 C   0  0  0  0  0  0  0  0  0  0  0  0
    3.7809   -0.3452    0.0237 C   0  0  0  0  0  0  0  0  0  0  0  0
    4.2734    0.8183    0.1754 O   0  0  0  0  0  0  0  0  0  0  0  0
    1.4156    0.3379   -0.0990 O   0  0  0  0  0  0  0  0  0  0  0  0
   -1.8374    2.1646    0.6240 H   0  0  0  0  0  0  0  0  0  0  0  0
   -0.1557    1.8509    0.8140 H   0  0  0  0  0  0  0  0  0  0  0  0
   -1.1788    0.9234   -1.2904 H   0  0  0  0  0  0  0  0  0  0  0  0
   -2.0529   -1.1370    0.7968 H   0  0  0  0  0  0  0  0  0  0  0  0
   -2.0953   -1.3262   -0.9724 H   0  0  0  0  0  0  0  0  0  0  0  0
   -3.5976    0.6845    0.4462 H   0  0  0  0  0  0  0  0  0  0  0  0
    4.4963   -1.1518    0.0029 H   0  0  0  0  0  0  0  0  0  0  0  0
  1  2  1  0
  2  3  1  0
  3  4  1  0
  2  5  1  0
  5  6  2  0
  6  7  1  0
  7  8  2  0
  8  9  1  0
  9 10  2  0
  8 11  1  0
 11  5  1  0
  1 12  1  0
  1 13  1  0
  2 14  1  6
  3 15  1  0
  3 16  1  0
  4 17  1  0
  9 18  1  0
M  END
$$$$

     RDKit          3D

 18 18  0  0  0  0  0  0  0  0999 V2000
   -1.2611    1.3562    0.9987 N   0  0  0  0  0  0  0  0  0  0  0  0
   -1.1750    0.5881   -0.2130 C   0  0  2  0  0  0  0  0  0  0  0  0
   -1.8667   -0.7350    0.0331 C   0  0  0  0  0  0  0  0  0  0  0  0
   -3.1979   -0.4693    0.3672 O   0  0  0  0  0  0  0  0  0  0  0  0
    0.2597    0.3187   -0.5766 C   0  0  0  0  0  0  0  0  0  0  0  0
    0.8451    0.4248   -1.7804 N   0  0  0  0  0  0  0  0  0  0  0  0
    2.1061    0.0831   -1.5873 N   0  0  0  0  0  0  0  0  0  0  0  0
    2.2682   -0.2232   -0.2808 C   0  0  0  0  0  0  0  0  0  0  0  0
    3.4931   -0.6523    0.3818 C   0  0  0  0  0  0  0  0  0  0  0  0
    4.5317   -0.7526   -0.3439 O   0  0  0  0  0  0  0  0  0  0  0  0
    1.1278   -0.0728    0.3196 O   0  0  0  0  0  0  0  0  0  0  0  0
   -1.4814    2.3540    0.8556 H   0  0  0  0  0  0  0  0  0  0  0  0
   -0.5208    1.1623    1.6833 H   0  0  0  0  0  0  0  0  0  0  0  0
   -1.6921    1.1062   -1.0154 H   0  0  0  0  0  0  0  0  0  0  0  0
   -1.3457   -1.2866    0.8674 H   0  0  0  0  0  0  0  0  0  0  0  0
   -1.8134   -1.4152   -0.8392 H   0  0  0  0  0  0  0  0  0  0  0  0
   -3.7826   -0.9168   -0.3002 H   0  0  0  0  0  0  0  0  0  0  0  0
    3.5049   -0.8697    1.4300 H   0  0  0  0  0  0  0  0  0  0  0  0
  1  2  1  0
  2  3  1  0
  3  4  1  0
  2  5  1  0
  5  6  2  0
  6  7  1  0
  7  8  2  0
  8  9  1  0
  9 10  2  0
  8 11  1  0
 11  5  1  0
  1 12  1  0
  1 13  1  0
  2 14  1  6
  3 15  1  0
  3 16  1  0
  4 17  1  0
  9 18  1  0
M  END
$$$$
