
     RDKit          3D

 20 19  0  0  0  0  0  0  0  0999 V2000
   -3.0456    0.5138    0.7530 C   0  0  0  0  0  0  0  0  0  0  0  0
   -2.0816   -0.3988    0.0281 C   0  0  0  0  0  0  0  0  0  0  0  0
   -0.7722    0.1035    0.2328 N   0  0  0  0  0  0  0  0  0  0  0  0
    0.3306   -0.0589   -0.9585 S   0  0  0  0  0  6  0  0  0  0  0  0
   -0.2575   -0.6377   -2.2472 O   0  0  0  0  0  0  0  0  0  0  0  0
    0.6971    1.4323   -1.3292 O   0  0  0  0  0  0  0  0  0  0  0  0
    1.8033   -0.9072   -0.5911 C   0  0  0  0  0  0  0  0  0  0  0  0
    2.5750   -0.1966    0.5258 C   0  0  0  0  0  0  0  0  0  0  0  0
    2.5058    1.1890    0.3227 O   0  0  0  0  0  0  0  0  0  0  0  0
   -3.7995    0.0430    1.3654 H   0  0  0  0  0  0  0  0  0  0  0  0
   -3.5471    1.1811   -0.0370 H   0  0  0  0  0  0  0  0  0  0  0  0
   -2.5016    1.2821    1.3632 H   0  0  0  0  0  0  0  0  0  0  0  0
   -2.1932   -1.3759    0.6057 H   0  0  0  0  0  0  0  0  0  0  0  0
   -2.2980   -0.6198   -1.0070 H   0  0  0  0  0  0  0  0  0  0  0  0
   -0.6538    0.8076    0.9522 H   0  0  0  0  0  0  0  0  0  0  0  0
    2.4679   -1.0023   -1.4943 H   0  0  0  0  0  0  0  0  0  0  0  0
    1.5609   -1.9573   -0.2907 H   0  0  0  0  0  0  0  0  0  0  0  0
    2.2427   -0.5003    1.5136 H   0  0  0  0  0  0  0  0  0  0  0  0
    3.6610   -0.4494    0.3906 H   0  0  0  0  0  0  0  0  0  0  0  0
    3.3058    1.5518   -0.0978 H   0  0  0  0  0  0  0  0  0  0  0  0
  1  2  1  0
  2  3  1  0
  3  4  1  0
  4  5  2  0
  4  6  2  0
  4  7  1  0
  7  8  1  0
  8  9  1  0
  1 10  1  0
  1 11  1  0
  1 12  1  0
  2 13  1  0
  2 14  1  0
  3 15  1  0
  7 16  1  0
  7 17  1  0
  8 18  1  0
  8 19  1  0
  9 20  1  0
M  END
$$$$

     RDKit          3D

 20 19  0  0  0  0  0  0  0  0999 V2000
    3.2470    0.4944   -0.7384 C   0  0  0  0  0  0  0  0  0  0  0  0
    1.8720    0.5465   -0.1191 C   0  0  0  0  0  0  0  0  0  0  0  0
    1.2996   -0.7790   -0.1128 N   0  0  0  0  0  0  0  0  0  0  0  0
   -0.2584   -0.8453    0.5655 S   0  0  0  0  0  6  0  0  0  0  0  0
   -0.2973   -0.4160    2.0031 O   0  0  0  0  0  0  0  0  0  0  0  0
   -0.7306   -2.2720    0.5217 O   0  0  0  0  0  0  0  0  0  0  0  0
   -1.4408    0.1323   -0.3153 C   0  0  0  0  0  0  0  0  0  0  0  0
   -2.7774   -0.0327    0.4135 C   0  0  0  0  0  0  0  0  0  0  0  0
   -3.7875    0.6893   -0.1854 O   0  0  0  0  0  0  0  0  0  0  0  0
    3.9135    1.2804   -0.3094 H   0  0  0  0  0  0  0  0  0  0  0  0
    3.7284   -0.4922   -0.4825 H   0  0  0  0  0  0  0  0  0  0  0  0
    3.2341    0.6557   -1.8365 H   0  0  0  0  0  0  0  0  0  0  0  0
    1.2462    1.1867   -0.8023 H   0  0  0  0  0  0  0  0  0  0  0  0
    1.8994    1.0204    0.8668 H   0  0  0  0  0  0  0  0  0  0  0  0
    1.9119   -1.4377    0.3849 H   0  0  0  0  0  0  0  0  0  0  0  0
   -1.6248   -0.2632   -1.3465 H   0  0  0  0  0  0  0  0  0  0  0  0
   -1.1708    1.1995   -0.3336 H   0  0  0  0  0  0  0  0  0  0  0  0
   -3.0476   -1.1204    0.3966 H   0  0  0  0  0  0  0  0  0  0  0  0
   -2.5820    0.2954    1.4705 H   0  0  0  0  0  0  0  0  0  0  0  0
   -4.6348    0.1577   -0.1808 H   0  0  0  0  0  0  0  0  0  0  0  0
  1  2  1  0
  2  3  1  0
  3  4  1  0
  4  5  2  0
  4  6  2  0
  4  7  1  0
  7  8  1  0
  8  9  1  0
  1 10  1  0
  1 11  1  0
  1 12  1  0
  2 13  1  0
  2 14  1  0
  3 15  1  0
  7 16  1  0
  7 17  1  0
  8 18  1  0
  8 19  1  0
  9 20  1  0
M  END
$$$$

     RDKit          3D

 20 19  0  0  0  0  0  0  0  0999 V2000
   -2.6122    0.5560    0.3892 C   0  0  0  0  0  0  0  0  0  0  0  0
   -2.2647   -0.8067   -0.1371 C   0  0  0  0  0  0  0  0  0  0  0  0
   -1.0119   -1.3132    0.2443 N   0  0  0  0  0  0  0  0  0  0  0  0
    0.3677   -0.7530   -0.5134 S   0  0  0  0  0  6  0  0  0  0  0  0
   -0.0058    0.2244   -1.5781 O   0  0  0  0  0  0  0  0  0  0  0  0
    1.0662   -1.9091   -1.1932 O   0  0  0  0  0  0  0  0  0  0  0  0
    1.4947   -0.0978    0.6738 C   0  0  0  0  0  0  0  0  0  0  0  0
    2.3650    0.9997    0.1272 C   0  0  0  0  0  0  0  0  0  0  0  0
    3.7128    0.6634    0.2718 O   0  0  0  0  0  0  0  0  0  0  0  0
   -2.5045    0.5389    1.4921 H   0  0  0  0  0  0  0  0  0  0  0  0
   -2.0740    1.3806   -0.0995 H   0  0  0  0  0  0  0  0  0  0  0  0
   -3.6944    0.7273    0.1581 H   0  0  0  0  0  0  0  0  0  0  0  0
   -3.0511   -1.5036    0.2521 H   0  0  0  0  0  0  0  0  0  0  0  0
   -2.4045   -0.8218   -1.2478 H   0  0  0  0  0  0  0  0  0  0  0  0
   -0.9324   -1.8914    1.0768 H   0  0  0  0  0  0  0  0  0  0  0  0
    0.8790    0.3186    1.5091 H   0  0  0  0  0  0  0  0  0  0  0  0
    2.0839   -0.9243    1.1463 H   0  0  0  0  0  0  0  0  0  0  0  0
    2.1062    1.1891   -0.9319 H   0  0  0  0  0  0  0  0  0  0  0  0
    2.2220    1.9492    0.6995 H   0  0  0  0  0  0  0  0  0  0  0  0
    4.2581    1.4736    0.0955 H   0  0  0  0  0  0  0  0  0  0  0  0
  1  2  1  0
  2  3  1  0
  3  4  1  0
  4  5  2  0
  4  6  2  0
  4  7  1  0
  7  8  1  0
  8  9  1  0
  1 10  1  0
  1 11  1  0
  1 12  1  0
  2 13  1  0
  2 14  1  0
  3 15  1  0
  7 16  1  0
  7 17  1  0
  8 18  1  0
  8 19  1  0
  9 20  1  0
M  END
$$$$

     RDKit          3D

 20 19  0  0  0  0  0  0  0  0999 V2000
    2.9343    0.5895    0.3455 C   0  0  0  0  0  0  0  0  0  0  0  0
    2.0181   -0.6146    0.1556 C   0  0  0  0  0  0  0  0  0  0  0  0
    1.2421   -0.3367   -1.0141 N   0  0  0  0  0  0  0  0  0  0  0  0
   -0.4228   -0.6361   -0.8737 S   0  0  0  0  0  6  0  0  0  0  0  0
   -1.0097   -0.5741   -2.2680 O   0  0  0  0  0  0  0  0  0  0  0  0
   -0.7679   -1.9533   -0.2734 O   0  0  0  0  0  0  0  0  0  0  0  0
   -1.2804    0.6174    0.0574 C   0  0  0  0  0  0  0  0  0  0  0  0
   -2.7668    0.3205   -0.0884 C   0  0  0  0  0  0  0  0  0  0  0  0
   -3.1700   -0.4408    1.0206 O   0  0  0  0  0  0  0  0  0  0  0  0
    3.5720    0.6237   -0.5510 H   0  0  0  0  0  0  0  0  0  0  0  0
    2.2464    1.4714    0.3420 H   0  0  0  0  0  0  0  0  0  0  0  0
    3.4811    0.5657    1.2950 H   0  0  0  0  0  0  0  0  0  0  0  0
    2.6582   -1.4959   -0.0525 H   0  0  0  0  0  0  0  0  0  0  0  0
    1.4228   -0.8402    1.0514 H   0  0  0  0  0  0  0  0  0  0  0  0
    1.6767   -0.5919   -1.9080 H   0  0  0  0  0  0  0  0  0  0  0  0
   -1.0499    1.6420   -0.3134 H   0  0  0  0  0  0  0  0  0  0  0  0
   -1.0240    0.5689    1.1241 H   0  0  0  0  0  0  0  0  0  0  0  0
   -2.9523   -0.2952   -0.9991 H   0  0  0  0  0  0  0  0  0  0  0  0
   -3.3452    1.2553   -0.1868 H   0  0  0  0  0  0  0  0  0  0  0  0
   -3.4627    0.1244    1.7644 H   0  0  0  0  0  0  0  0  0  0  0  0
  1  2  1  0
  2  3  1  0
  3  4  1  0
  4  5  2  0
  4  6  2  0
  4  7  1  0
  7  8  1  0
  8  9  1  0
  1 10  1  0
  1 11  1  0
  1 12  1  0
  2 13  1  0
  2 14  1  0
  3 15  1  0
  7 16  1  0
  7 17  1  0
  8 18  1  0
  8 19  1  0
  9 20  1  0
M  END
$$$$

     RDKit          3D

 20 19  0  0  0  0  0  0  0  0999 V2000
   -2.7430    0.7048   -0.4681 C   0  0  0  0  0  0  0  0  0  0  0  0
   -2.0489   -0.6851   -0.2995 C   0  0  0  0  0  0  0  0  0  0  0  0
   -1.1943   -0.4971    0.6936 N   0  0  0  0  0  0  0  0  0  0  0  0
    0.3225    0.0602    0.3834 S   0  0  0  0  0  6  0  0  0  0  0  0
    0.7691    0.8531    1.5482 O   0  0  0  0  0  0  0  0  0  0  0  0
   -0.0296    1.3005   -0.6693 O   0  0  0  0  0  0  0  0  0  0  0  0
    1.5591   -0.7440   -0.4758 C   0  0  0  0  0  0  0  0  0  0  0  0
    2.9348   -0.1981    0.0736 C   0  0  0  0  0  0  0  0  0  0  0  0
    2.7340    1.1261    0.4008 O   0  0  0  0  0  0  0  0  0  0  0  0
   -3.7346    0.8078   -0.5300 H   0  0  0  0  0  0  0  0  0  0  0  0
   -2.3275    0.9401   -1.5720 H   0  0  0  0  0  0  0  0  0  0  0  0
   -2.2259    1.4767    0.1557 H   0  0  0  0  0  0  0  0  0  0  0  0
   -3.0329   -1.1437    0.3190 H   0  0  0  0  0  0  0  0  0  0  0  0
   -2.0619   -1.3115   -1.1425 H   0  0  0  0  0  0  0  0  0  0  0  0
   -1.3595   -0.7780    1.6886 H   0  0  0  0  0  0  0  0  0  0  0  0
    1.5488   -1.8440   -0.1859 H   0  0  0  0  0  0  0  0  0  0  0  0
    1.5768   -0.6634   -1.5475 H   0  0  0  0  0  0  0  0  0  0  0  0
    3.2521   -0.7690    0.9419 H   0  0  0  0  0  0  0  0  0  0  0  0
    3.7197   -0.2871   -0.7196 H   0  0  0  0  0  0  0  0  0  0  0  0
    2.3414    1.6517   -0.2961 H   0  0  0  0  0  0  0  0  0  0  0  0
  1  2  1  0
  2  3  1  0
  3  4  1  0
  4  5  2  0
  4  6  2  0
  4  7  1  0
  7  8  1  0
  8  9  1  0
  1 10  1  0
  1 11  1  0
  1 12  1  0
  2 13  1  0
  2 14  1  0
  3 15  1  0
  7 16  1  0
  7 17  1  0
  8 18  1  0
  8 19  1  0
  9 20  1  0
M  END
$$$$

     RDKit          3D

 20 19  0  0  0  0  0  0  0  0999 V2000
   -2.9068    0.7123   -0.5278 C   0  0  0  0  0  0  0  0  0  0  0  0
   -1.5580    0.2361    0.0466 C   0  0  0  0  0  0  0  0  0  0  0  0
   -1.0355   -0.8445   -0.7066 N   0  0  0  0  0  0  0  0  0  0  0  0
    0.4300   -1.4626   -0.1628 S   0  0  0  0  0  6  0  0  0  0  0  0
    0.8172   -2.7305   -0.9642 O   0  0  0  0  0  0  0  0  0  0  0  0
    0.2695   -2.0516    1.2648 O   0  0  0  0  0  0  0  0  0  0  0  0
    1.8362   -0.4611   -0.1453 C   0  0  0  0  0  0  0  0  0  0  0  0
    1.8644    0.7664    0.6889 C   0  0  0  0  0  0  0  0  0  0  0  0
    3.1997    1.2843    0.4908 O   0  0  0  0  0  0  0  0  0  0  0  0
   -2.9398    0.6279   -1.6151 H   0  0  0  0  0  0  0  0  0  0  0  0
   -3.7343    0.0966   -0.1144 H   0  0  0  0  0  0  0  0  0  0  0  0
   -2.9850    1.7819   -0.2425 H   0  0  0  0  0  0  0  0  0  0  0  0
   -0.8481    1.0805    0.0222 H   0  0  0  0  0  0  0  0  0  0  0  0
   -1.7234   -0.0208    1.1182 H   0  0  0  0  0  0  0  0  0  0  0  0
   -1.7731   -1.5521   -0.8913 H   0  0  0  0  0  0  0  0  0  0  0  0
    2.7317   -1.0732    0.2168 H   0  0  0  0  0  0  0  0  0  0  0  0
    2.1776   -0.1519   -1.1730 H   0  0  0  0  0  0  0  0  0  0  0  0
    1.2190    1.6007    0.3796 H   0  0  0  0  0  0  0  0  0  0  0  0
    1.7094    0.5986    1.7640 H   0  0  0  0  0  0  0  0  0  0  0  0
    3.2491    1.5630   -0.4755 H   0  0  0  0  0  0  0  0  0  0  0  0
  1  2  1  0
  2  3  1  0
  3  4  1  0
  4  5  2  0
  4  6  2  0
  4  7  1  0
  7  8  1  0
  8  9  1  0
  1 10  1  0
  1 11  1  0
  1 12  1  0
  2 13  1  0
  2 14  1  0
  3 15  1  0
  7 16  1  0
  7 17  1  0
  8 18  1  0
  8 19  1  0
  9 20  1  0
M  END
$$$$

     RDKit          3D

 20 19  0  0  0  0  0  0  0  0999 V2000
   -3.2824   -0.1017   -0.0549 C   0  0  0  0  0  0  0  0  0  0  0  0
   -1.8136    0.2139   -0.1901 C   0  0  0  0  0  0  0  0  0  0  0  0
   -1.1137   -0.7548   -1.0058 N   0  0  0  0  0  0  0  0  0  0  0  0
    0.5343   -0.2850   -1.0796 S   0  0  0  0  0  6  0  0  0  0  0  0
    0.5874    1.1160   -1.6255 O   0  0  0  0  0  0  0  0  0  0  0  0
    1.2472   -1.1730   -2.0315 O   0  0  0  0  0  0  0  0  0  0  0  0
    1.2917   -0.2752    0.5286 C   0  0  0  0  0  0  0  0  0  0  0  0
    2.7474    0.1452    0.4181 C   0  0  0  0  0  0  0  0  0  0  0  0
    2.8613    1.4210   -0.1259 O   0  0  0  0  0  0  0  0  0  0  0  0
   -3.8571    0.2745   -0.9259 H   0  0  0  0  0  0  0  0  0  0  0  0
   -3.4915   -1.1611    0.1023 H   0  0  0  0  0  0  0  0  0  0  0  0
   -3.6710    0.4771    0.8263 H   0  0  0  0  0  0  0  0  0  0  0  0
   -1.7437    1.2253   -0.6392 H   0  0  0  0  0  0  0  0  0  0  0  0
   -1.3102    0.2644    0.7971 H   0  0  0  0  0  0  0  0  0  0  0  0
   -1.2760   -1.7246   -0.7297 H   0  0  0  0  0  0  0  0  0  0  0  0
    1.2047   -1.2498    1.0401 H   0  0  0  0  0  0  0  0  0  0  0  0
    0.8020    0.4822    1.1739 H   0  0  0  0  0  0  0  0  0  0  0  0
    3.3195   -0.5358   -0.2443 H   0  0  0  0  0  0  0  0  0  0  0  0
    3.1679    0.0976    1.4509 H   0  0  0  0  0  0  0  0  0  0  0  0
    3.7957    1.5440   -0.4512 H   0  0  0  0  0  0  0  0  0  0  0  0
  1  2  1  0
  2  3  1  0
  3  4  1  0
  4  5  2  0
  4  6  2  0
  4  7  1  0
  7  8  1  0
  8  9  1  0
  1 10  1  0
  1 11  1  0
  1 12  1  0
  2 13  1  0
  2 14  1  0
  3 15  1  0
  7 16  1  0
  7 17  1  0
  8 18  1  0
  8 19  1  0
  9 20  1  0
M  END
$$$$

     RDKit          3D

 20 19  0  0  0  0  0  0  0  0999 V2000
   -2.8763    0.3184    0.6286 C   0  0  0  0  0  0  0  0  0  0  0  0
   -1.6599   -0.1551   -0.1245 C   0  0  0  0  0  0  0  0  0  0  0  0
   -0.8228    0.9532   -0.5595 N   0  0  0  0  0  0  0  0  0  0  0  0
    0.5091    0.2347   -1.3956 S   0  0  0  0  0  6  0  0  0  0  0  0
    1.3538    1.3595   -1.9213 O   0  0  0  0  0  0  0  0  0  0  0  0
    0.0256   -0.5468   -2.5792 O   0  0  0  0  0  0  0  0  0  0  0  0
    1.4498   -0.8223   -0.3209 C   0  0  0  0  0  0  0  0  0  0  0  0
    1.9562    0.0588    0.8141 C   0  0  0  0  0  0  0  0  0  0  0  0
    2.7082   -0.6761    1.7157 O   0  0  0  0  0  0  0  0  0  0  0  0
   -3.7891   -0.0851    0.1527 H   0  0  0  0  0  0  0  0  0  0  0  0
   -2.9236    1.4381    0.6206 H   0  0  0  0  0  0  0  0  0  0  0  0
   -2.8277    0.0015    1.6947 H   0  0  0  0  0  0  0  0  0  0  0  0
   -1.0270   -0.7744    0.5465 H   0  0  0  0  0  0  0  0  0  0  0  0
   -1.9378   -0.7969   -1.0022 H   0  0  0  0  0  0  0  0  0  0  0  0
   -0.5260    1.4895    0.2681 H   0  0  0  0  0  0  0  0  0  0  0  0
    0.8325   -1.6456    0.0889 H   0  0  0  0  0  0  0  0  0  0  0  0
    2.3197   -1.2514   -0.8571 H   0  0  0  0  0  0  0  0  0  0  0  0
    2.5001    0.8948    0.3561 H   0  0  0  0  0  0  0  0  0  0  0  0
    1.0733    0.4656    1.3621 H   0  0  0  0  0  0  0  0  0  0  0  0
    3.6618   -0.4606    1.7146 H   0  0  0  0  0  0  0  0  0  0  0  0
  1  2  1  0
  2  3  1  0
  3  4  1  0
  4  5  2  0
  4  6  2  0
  4  7  1  0
  7  8  1  0
  8  9  1  0
  1 10  1  0
  1 11  1  0
  1 12  1  0
  2 13  1  0
  2 14  1  0
  3 15  1  0
  7 16  1  0
  7 17  1  0
  8 18  1  0
  8 19  1  0
  9 20  1  0
M  END
$$$$
