
     RDKit          3D

 23 23  0  0  0  0  0  0  0  0999 V2000
    2.8430   -0.7719   -0.2328 N   0  0  0  0  0  0  0  0  0  0  0  0
    1.9769    0.2617   -0.6789 C   0  0  0  0  0  0  0  0  0  0  0  0
    2.3494    1.4852   -0.6647 O   0  0  0  0  0  0  0  0  0  0  0  0
    0.5998    0.0401   -1.1885 C   0  0  0  0  0  0  0  0  0  0  0  0
   -0.3637    0.5287   -0.1110 C   0  0  2  0  0  0  0  0  0  0  0  0
   -0.1616    1.9255    0.1724 N   0  0  0  0  0  0  0  0  0  0  0  0
   -0.2272   -0.3357    1.0960 C   0  0  0  0  0  0  0  0  0  0  0  0
   -1.2817   -1.4142    0.8072 C   0  0  0  0  0  0  0  0  0  0  0  0
   -2.4132   -0.5538    0.4574 N   0  0  0  0  0  0  0  0  0  0  0  0
   -1.8012    0.3369   -0.5064 C   0  0  0  0  0  0  0  0  0  0  0  0
    3.2514   -0.6494    0.7241 H   0  0  0  0  0  0  0  0  0  0  0  0
    3.0468   -1.5879   -0.8282 H   0  0  0  0  0  0  0  0  0  0  0  0
    0.3967   -1.0408   -1.3477 H   0  0  0  0  0  0  0  0  0  0  0  0
    0.4293    0.5787   -2.1333 H   0  0  0  0  0  0  0  0  0  0  0  0
    0.0057    2.4704   -0.6930 H   0  0  0  0  0  0  0  0  0  0  0  0
    0.5077    2.1171    0.9373 H   0  0  0  0  0  0  0  0  0  0  0  0
    0.7706   -0.8120    1.1895 H   0  0  0  0  0  0  0  0  0  0  0  0
   -0.5634    0.1501    2.0316 H   0  0  0  0  0  0  0  0  0  0  0  0
   -0.9865   -2.0095   -0.0954 H   0  0  0  0  0  0  0  0  0  0  0  0
   -1.4692   -2.0246    1.6904 H   0  0  0  0  0  0  0  0  0  0  0  0
   -2.6199    0.0201    1.3285 H   0  0  0  0  0  0  0  0  0  0  0  0
   -1.9112   -0.0163   -1.5310 H   0  0  0  0  0  0  0  0  0  0  0  0
   -2.3784    1.3018   -0.4235 H   0  0  0  0  0  0  0  0  0  0  0  0
  1  2  1  0
  2  3  2  0
  2  4  1  0
  4  5  1  0
  5  6  1  1
  5  7  1  0
  7  8  1  0
  8  9  1  0
  9 10  1  0
 10  5  1  0
  1 11  1  0
  1 12  1  0
  4 13  1  0
  4 14  1  0
  6 15  1  0
  6 16  1  0
  7 17  1  0
  7 18  1  0
  8 19  1  0
  8 20  1  0
  9 21  1  0
 10 22  1  0
 10 23  1  0
M  END
$$$$

     RDKit          3D

 23 23  0  0  0  0  0  0  0  0999 V2000
    2.6155    0.4110   -0.0262 N   0  0  0  0  0  0  0  0  0  0  0  0
    2.1076   -0.5364   -0.9451 C   0  0  0  0  0  0  0  0  0  0  0  0
    2.9030   -1.0331   -1.7782 O   0  0  0  0  0  0  0  0  0  0  0  0
    0.7029   -0.9803   -0.9895 C   0  0  0  0  0  0  0  0  0  0  0  0
   -0.1763   -0.3402    0.0476 C   0  0  2  0  0  0  0  0  0  0  0  0
    0.2979   -0.6347    1.3660 N   0  0  0  0  0  0  0  0  0  0  0  0
   -1.6372   -0.7602   -0.1357 C   0  0  0  0  0  0  0  0  0  0  0  0
   -2.3381    0.3513    0.5836 C   0  0  0  0  0  0  0  0  0  0  0  0
   -1.6332    1.5359    0.1937 N   0  0  0  0  0  0  0  0  0  0  0  0
   -0.2995    1.1382   -0.2208 C   0  0  0  0  0  0  0  0  0  0  0  0
    2.8369    0.1332    0.9514 H   0  0  0  0  0  0  0  0  0  0  0  0
    2.7805    1.4075   -0.3085 H   0  0  0  0  0  0  0  0  0  0  0  0
    0.6893   -2.0974   -0.8391 H   0  0  0  0  0  0  0  0  0  0  0  0
    0.3264   -0.8065   -2.0183 H   0  0  0  0  0  0  0  0  0  0  0  0
    0.6446    0.1545    1.9136 H   0  0  0  0  0  0  0  0  0  0  0  0
    1.0145   -1.3817    1.3026 H   0  0  0  0  0  0  0  0  0  0  0  0
   -1.8298   -1.7597    0.2774 H   0  0  0  0  0  0  0  0  0  0  0  0
   -1.8534   -0.6845   -1.2134 H   0  0  0  0  0  0  0  0  0  0  0  0
   -3.4038    0.3777    0.2655 H   0  0  0  0  0  0  0  0  0  0  0  0
   -2.3548    0.1885    1.6926 H   0  0  0  0  0  0  0  0  0  0  0  0
   -1.6299    2.2811    0.9176 H   0  0  0  0  0  0  0  0  0  0  0  0
    0.4872    1.7301    0.2864 H   0  0  0  0  0  0  0  0  0  0  0  0
   -0.2501    1.3055   -1.3234 H   0  0  0  0  0  0  0  0  0  0  0  0
  1  2  1  0
  2  3  2  0
  2  4  1  0
  4  5  1  0
  5  6  1  1
  5  7  1  0
  7  8  1  0
  8  9  1  0
  9 10  1  0
 10  5  1  0
  1 11  1  0
  1 12  1  0
  4 13  1  0
  4 14  1  0
  6 15  1  0
  6 16  1  0
  7 17  1  0
  7 18  1  0
  8 19  1  0
  8 20  1  0
  9 21  1  0
 10 22  1  0
 10 23  1  0
M  END
$$$$

     RDKit          3D

 23 23  0  0  0  0  0  0  0  0999 V2000
    3.4725   -0.1391   -0.3349 N   0  0  0  0  0  0  0  0  0  0  0  0
    2.0782   -0.3348   -0.4666 C   0  0  0  0  0  0  0  0  0  0  0  0
    1.6366   -0.9361   -1.4689 O   0  0  0  0  0  0  0  0  0  0  0  0
    1.1737    0.1669    0.5676 C   0  0  0  0  0  0  0  0  0  0  0  0
   -0.2633   -0.1382    0.2477 C   0  0  2  0  0  0  0  0  0  0  0  0
   -0.5353   -1.5476    0.1253 N   0  0  0  0  0  0  0  0  0  0  0  0
   -0.7570    0.5958   -0.9717 C   0  0  0  0  0  0  0  0  0  0  0  0
   -2.2581    0.4981   -0.7387 C   0  0  0  0  0  0  0  0  0  0  0  0
   -2.4223    0.5863    0.6814 N   0  0  0  0  0  0  0  0  0  0  0  0
   -1.1376    0.5164    1.3006 C   0  0  0  0  0  0  0  0  0  0  0  0
    4.0703   -0.1201   -1.2074 H   0  0  0  0  0  0  0  0  0  0  0  0
    3.9612   -0.0098    0.5816 H   0  0  0  0  0  0  0  0  0  0  0  0
    1.4104   -0.3758    1.5170 H   0  0  0  0  0  0  0  0  0  0  0  0
    1.2521    1.2607    0.7203 H   0  0  0  0  0  0  0  0  0  0  0  0
    0.0354   -2.1067    0.7914 H   0  0  0  0  0  0  0  0  0  0  0  0
   -0.4624   -1.8780   -0.8561 H   0  0  0  0  0  0  0  0  0  0  0  0
   -0.4430    0.1513   -1.9205 H   0  0  0  0  0  0  0  0  0  0  0  0
   -0.4917    1.6547   -0.8602 H   0  0  0  0  0  0  0  0  0  0  0  0
   -2.8082    1.2785   -1.2877 H   0  0  0  0  0  0  0  0  0  0  0  0
   -2.5529   -0.5237   -1.1169 H   0  0  0  0  0  0  0  0  0  0  0  0
   -3.1045   -0.1305    1.0122 H   0  0  0  0  0  0  0  0  0  0  0  0
   -1.1164   -0.0231    2.2584 H   0  0  0  0  0  0  0  0  0  0  0  0
   -0.7377    1.5545    1.4259 H   0  0  0  0  0  0  0  0  0  0  0  0
  1  2  1  0
  2  3  2  0
  2  4  1  0
  4  5  1  0
  5  6  1  6
  5  7  1  0
  7  8  1  0
  8  9  1  0
  9 10  1  0
 10  5  1  0
  1 11  1  0
  1 12  1  0
  4 13  1  0
  4 14  1  0
  6 15  1  0
  6 16  1  0
  7 17  1  0
  7 18  1  0
  8 19  1  0
  8 20  1  0
  9 21  1  0
 10 22  1  0
 10 23  1  0
M  END
$$$$

     RDKit          3D

 23 23  0  0  0  0  0  0  0  0999 V2000
    3.3932    0.5708   -0.6384 N   0  0  0  0  0  0  0  0  0  0  0  0
    1.9953    0.2995   -0.8141 C   0  0  0  0  0  0  0  0  0  0  0  0
    1.4622    0.4741   -1.9339 O   0  0  0  0  0  0  0  0  0  0  0  0
    1.2061   -0.1803    0.3232 C   0  0  0  0  0  0  0  0  0  0  0  0
   -0.2309   -0.3974   -0.0925 C   0  0  2  0  0  0  0  0  0  0  0  0
   -0.2455   -1.3856   -1.1536 N   0  0  0  0  0  0  0  0  0  0  0  0
   -0.8491    0.9049   -0.4921 C   0  0  0  0  0  0  0  0  0  0  0  0
   -2.3109    0.6515   -0.0963 C   0  0  0  0  0  0  0  0  0  0  0  0
   -2.1023    0.1591    1.2560 N   0  0  0  0  0  0  0  0  0  0  0  0
   -1.0878   -0.8611    1.0522 C   0  0  0  0  0  0  0  0  0  0  0  0
    4.1038    0.0158   -1.1883 H   0  0  0  0  0  0  0  0  0  0  0  0
    3.7153    1.3093    0.0256 H   0  0  0  0  0  0  0  0  0  0  0  0
    1.2666    0.5505    1.1518 H   0  0  0  0  0  0  0  0  0  0  0  0
    1.6061   -1.1600    0.6783 H   0  0  0  0  0  0  0  0  0  0  0  0
   -0.7393   -1.0434   -2.0044 H   0  0  0  0  0  0  0  0  0  0  0  0
   -0.6076   -2.3093   -0.8257 H   0  0  0  0  0  0  0  0  0  0  0  0
   -0.4679    1.6880    0.2017 H   0  0  0  0  0  0  0  0  0  0  0  0
   -0.7485    1.1597   -1.5440 H   0  0  0  0  0  0  0  0  0  0  0  0
   -2.9043    1.5760   -0.1203 H   0  0  0  0  0  0  0  0  0  0  0  0
   -2.7095   -0.1639   -0.7228 H   0  0  0  0  0  0  0  0  0  0  0  0
   -1.6391    0.9343    1.7824 H   0  0  0  0  0  0  0  0  0  0  0  0
   -1.6349   -1.7973    0.7923 H   0  0  0  0  0  0  0  0  0  0  0  0
   -0.4711   -0.9953    1.9697 H   0  0  0  0  0  0  0  0  0  0  0  0
  1  2  1  0
  2  3  2  0
  2  4  1  0
  4  5  1  0
  5  6  1  6
  5  7  1  0
  7  8  1  0
  8  9  1  0
  9 10  1  0
 10  5  1  0
  1 11  1  0
  1 12  1  0
  4 13  1  0
  4 14  1  0
  6 15  1  0
  6 16  1  0
  7 17  1  0
  7 18  1  0
  8 19  1  0
  8 20  1  0
  9 21  1  0
 10 22  1  0
 10 23  1  0
M  END
$$$$

     RDKit          3D

 23 23  0  0  0  0  0  0  0  0999 V2000
    3.4833    0.2657    0.2032 N   0  0  0  0  0  0  0  0  0  0  0  0
    2.1745   -0.2477    0.0550 C   0  0  0  0  0  0  0  0  0  0  0  0
    2.0004   -1.3366   -0.5329 O   0  0  0  0  0  0  0  0  0  0  0  0
    1.0414    0.4960    0.5882 C   0  0  0  0  0  0  0  0  0  0  0  0
   -0.2893   -0.1638    0.3602 C   0  0  2  0  0  0  0  0  0  0  0  0
   -0.3776   -1.4654    0.9623 N   0  0  0  0  0  0  0  0  0  0  0  0
   -0.6321   -0.3032   -1.1006 C   0  0  0  0  0  0  0  0  0  0  0  0
   -2.1310   -0.0769   -1.0461 C   0  0  0  0  0  0  0  0  0  0  0  0
   -2.1718    1.1488   -0.2554 N   0  0  0  0  0  0  0  0  0  0  0  0
   -1.3624    0.7771    0.8845 C   0  0  0  0  0  0  0  0  0  0  0  0
    4.3217   -0.3253    0.4271 H   0  0  0  0  0  0  0  0  0  0  0  0
    3.6970    1.2981    0.0942 H   0  0  0  0  0  0  0  0  0  0  0  0
    1.0031    1.5267    0.1932 H   0  0  0  0  0  0  0  0  0  0  0  0
    1.1727    0.5639    1.6997 H   0  0  0  0  0  0  0  0  0  0  0  0
    0.5576   -1.7178    1.3495 H   0  0  0  0  0  0  0  0  0  0  0  0
   -0.7386   -2.2030    0.3010 H   0  0  0  0  0  0  0  0  0  0  0  0
   -0.2002    0.5184   -1.7106 H   0  0  0  0  0  0  0  0  0  0  0  0
   -0.3703   -1.2955   -1.5097 H   0  0  0  0  0  0  0  0  0  0  0  0
   -2.5718   -0.8683   -0.4255 H   0  0  0  0  0  0  0  0  0  0  0  0
   -2.5810    0.0361   -2.0353 H   0  0  0  0  0  0  0  0  0  0  0  0
   -3.1274    1.4265    0.0030 H   0  0  0  0  0  0  0  0  0  0  0  0
   -0.9330    1.6911    1.3401 H   0  0  0  0  0  0  0  0  0  0  0  0
   -1.9650    0.2552    1.6544 H   0  0  0  0  0  0  0  0  0  0  0  0
  1  2  1  0
  2  3  2  0
  2  4  1  0
  4  5  1  0
  5  6  1  1
  5  7  1  0
  7  8  1  0
  8  9  1  0
  9 10  1  0
 10  5  1  0
  1 11  1  0
  1 12  1  0
  4 13  1  0
  4 14  1  0
  6 15  1  0
  6 16  1  0
  7 17  1  0
  7 18  1  0
  8 19  1  0
  8 20  1  0
  9 21  1  0
 10 22  1  0
 10 23  1  0
M  END
$$$$

     RDKit          3D

 23 23  0  0  0  0  0  0  0  0999 V2000
    3.5112    0.0392    0.4017 N   0  0  0  0  0  0  0  0  0  0  0  0
    2.1663   -0.2387    0.0626 C   0  0  0  0  0  0  0  0  0  0  0  0
    1.9022   -1.3068   -0.5431 O   0  0  0  0  0  0  0  0  0  0  0  0
    1.0828    0.6822    0.3984 C   0  0  0  0  0  0  0  0  0  0  0  0
   -0.2389    0.1661   -0.0641 C   0  0  2  0  0  0  0  0  0  0  0  0
   -0.3172   -0.0393   -1.4829 N   0  0  0  0  0  0  0  0  0  0  0  0
   -1.3597    1.0887    0.4245 C   0  0  0  0  0  0  0  0  0  0  0  0
   -2.5447    0.1735    0.1477 C   0  0  0  0  0  0  0  0  0  0  0  0
   -2.1032   -1.1133    0.5809 N   0  0  0  0  0  0  0  0  0  0  0  0
   -0.6627   -1.0999    0.6512 C   0  0  0  0  0  0  0  0  0  0  0  0
    3.6982    0.6637    1.1909 H   0  0  0  0  0  0  0  0  0  0  0  0
    4.3281   -0.3631   -0.1158 H   0  0  0  0  0  0  0  0  0  0  0  0
    1.0305    0.8180    1.4978 H   0  0  0  0  0  0  0  0  0  0  0  0
    1.2671    1.6510   -0.0810 H   0  0  0  0  0  0  0  0  0  0  0  0
    0.4543    0.4033   -2.0033 H   0  0  0  0  0  0  0  0  0  0  0  0
   -0.2815   -1.0729   -1.6944 H   0  0  0  0  0  0  0  0  0  0  0  0
   -1.2695    1.1675    1.5175 H   0  0  0  0  0  0  0  0  0  0  0  0
   -1.3993    2.0257   -0.1165 H   0  0  0  0  0  0  0  0  0  0  0  0
   -3.4686    0.5282    0.6100 H   0  0  0  0  0  0  0  0  0  0  0  0
   -2.6409    0.1252   -0.9767 H   0  0  0  0  0  0  0  0  0  0  0  0
   -2.5584   -1.3595    1.4675 H   0  0  0  0  0  0  0  0  0  0  0  0
   -0.4075   -0.9353    1.7375 H   0  0  0  0  0  0  0  0  0  0  0  0
   -0.1887   -2.0034    0.2422 H   0  0  0  0  0  0  0  0  0  0  0  0
  1  2  1  0
  2  3  2  0
  2  4  1  0
  4  5  1  0
  5  6  1  6
  5  7  1  0
  7  8  1  0
  8  9  1  0
  9 10  1  0
 10  5  1  0
  1 11  1  0
  1 12  1  0
  4 13  1  0
  4 14  1  0
  6 15  1  0
  6 16  1  0
  7 17  1  0
  7 18  1  0
  8 19  1  0
  8 20  1  0
  9 21  1  0
 10 22  1  0
 10 23  1  0
M  END
$$$$

     RDKit          3D

 23 23  0  0  0  0  0  0  0  0999 V2000
   -3.3253   -0.1116    0.0393 N   0  0  0  0  0  0  0  0  0  0  0  0
   -2.0972   -0.8219   -0.0529 C   0  0  0  0  0  0  0  0  0  0  0  0
   -2.0374   -1.8927    0.6211 O   0  0  0  0  0  0  0  0  0  0  0  0
   -0.9538   -0.3844   -0.8581 C   0  0  0  0  0  0  0  0  0  0  0  0
    0.1526    0.2376   -0.0546 C   0  0  2  0  0  0  0  0  0  0  0  0
   -0.2172    1.3943    0.6782 N   0  0  0  0  0  0  0  0  0  0  0  0
    1.3045    0.5335   -1.0059 C   0  0  0  0  0  0  0  0  0  0  0  0
    2.4697   -0.2330   -0.4351 C   0  0  0  0  0  0  0  0  0  0  0  0
    2.1382   -0.2714    0.9788 N   0  0  0  0  0  0  0  0  0  0  0  0
    0.7573   -0.7733    0.9015 C   0  0  0  0  0  0  0  0  0  0  0  0
   -3.6111    0.2233    0.9824 H   0  0  0  0  0  0  0  0  0  0  0  0
   -3.8895    0.0487   -0.8203 H   0  0  0  0  0  0  0  0  0  0  0  0
   -1.2493    0.3062   -1.6752 H   0  0  0  0  0  0  0  0  0  0  0  0
   -0.5061   -1.2744   -1.3787 H   0  0  0  0  0  0  0  0  0  0  0  0
    0.5155    2.1507    0.5381 H   0  0  0  0  0  0  0  0  0  0  0  0
   -1.1162    1.8274    0.4329 H   0  0  0  0  0  0  0  0  0  0  0  0
    1.0628    0.2497   -2.0466 H   0  0  0  0  0  0  0  0  0  0  0  0
    1.5646    1.6268   -0.9516 H   0  0  0  0  0  0  0  0  0  0  0  0
    3.4440    0.2459   -0.6265 H   0  0  0  0  0  0  0  0  0  0  0  0
    2.4305   -1.2824   -0.7993 H   0  0  0  0  0  0  0  0  0  0  0  0
    2.0790    0.7452    1.2879 H   0  0  0  0  0  0  0  0  0  0  0  0
    0.8150   -1.7408    0.3734 H   0  0  0  0  0  0  0  0  0  0  0  0
    0.2693   -0.8036    1.8710 H   0  0  0  0  0  0  0  0  0  0  0  0
  1  2  1  0
  2  3  2  0
  2  4  1  0
  4  5  1  0
  5  6  1  1
  5  7  1  0
  7  8  1  0
  8  9  1  0
  9 10  1  0
 10  5  1  0
  1 11  1  0
  1 12  1  0
  4 13  1  0
  4 14  1  0
  6 15  1  0
  6 16  1  0
  7 17  1  0
  7 18  1  0
  8 19  1  0
  8 20  1  0
  9 21  1  0
 10 22  1  0
 10 23  1  0
M  END
$$$$

     RDKit          3D

 23 23  0  0  0  0  0  0  0  0999 V2000
    2.6507   -1.0505   -0.6864 N   0  0  0  0  0  0  0  0  0  0  0  0
    2.0014   -0.4398    0.4303 C   0  0  0  0  0  0  0  0  0  0  0  0
    2.1218   -1.0020    1.5468 O   0  0  0  0  0  0  0  0  0  0  0  0
    1.2319    0.7924    0.2408 C   0  0  0  0  0  0  0  0  0  0  0  0
   -0.2379    0.5748    0.0822 C   0  0  2  0  0  0  0  0  0  0  0  0
   -0.8877    1.8586   -0.0962 N   0  0  0  0  0  0  0  0  0  0  0  0
   -0.8752   -0.2278    1.1644 C   0  0  0  0  0  0  0  0  0  0  0  0
   -1.9564   -1.0113    0.4158 C   0  0  0  0  0  0  0  0  0  0  0  0
   -2.0059   -0.4243   -0.9284 N   0  0  0  0  0  0  0  0  0  0  0  0
   -0.5682   -0.2513   -1.1597 C   0  0  0  0  0  0  0  0  0  0  0  0
    3.5047   -1.6278   -0.6328 H   0  0  0  0  0  0  0  0  0  0  0  0
    2.2479   -0.9172   -1.6530 H   0  0  0  0  0  0  0  0  0  0  0  0
    1.5950    1.3951   -0.6175 H   0  0  0  0  0  0  0  0  0  0  0  0
    1.3608    1.4471    1.1371 H   0  0  0  0  0  0  0  0  0  0  0  0
   -0.3321    2.4165   -0.7893 H   0  0  0  0  0  0  0  0  0  0  0  0
   -0.8571    2.3373    0.8340 H   0  0  0  0  0  0  0  0  0  0  0  0
   -0.2003   -0.8829    1.7159 H   0  0  0  0  0  0  0  0  0  0  0  0
   -1.4331    0.4827    1.8367 H   0  0  0  0  0  0  0  0  0  0  0  0
   -1.5741   -2.0447    0.2639 H   0  0  0  0  0  0  0  0  0  0  0  0
   -2.9235   -0.9731    0.9233 H   0  0  0  0  0  0  0  0  0  0  0  0
   -2.3820    0.5572   -0.8460 H   0  0  0  0  0  0  0  0  0  0  0  0
   -0.3472    0.2667   -2.0909 H   0  0  0  0  0  0  0  0  0  0  0  0
   -0.1337   -1.2758   -1.0910 H   0  0  0  0  0  0  0  0  0  0  0  0
  1  2  1  0
  2  3  2  0
  2  4  1  0
  4  5  1  0
  5  6  1  6
  5  7  1  0
  7  8  1  0
  8  9  1  0
  9 10  1  0
 10  5  1  0
  1 11  1  0
  1 12  1  0
  4 13  1  0
  4 14  1  0
  6 15  1  0
  6 16  1  0
  7 17  1  0
  7 18  1  0
  8 19  1  0
  8 20  1  0
  9 21  1  0
 10 22  1  0
 10 23  1  0
M  END
$$$$
