
     RDKit          3D

 29 30  0  0  0  0  0  0  0  0999 V2000
   -4.5746    1.3352   -0.8792 O   0  0  0  0  0  0  0  0  0  0  0  0
   -3.4997    0.7682   -0.6389 C   0  0  0  0  0  0  0  0  0  0  0  0
   -2.4321    1.4220    0.1617 C   0  0  0  0  0  0  0  0  0  0  0  0
   -1.8738    0.3028    1.0524 C   0  0  0  0  0  0  0  0  0  0  0  0
   -1.0823   -0.6369    0.2154 C   0  0  2  0  0  0  0  0  0  0  0  0
    0.2898   -0.3049    0.0354 N   0  0  0  0  0  0  0  0  0  0  0  0
    1.3497   -1.1228    0.4653 C   0  0  0  0  0  0  0  0  0  0  0  0
    1.0284   -2.1964    1.0349 O   0  0  0  0  0  0  0  0  0  0  0  0
    2.7793   -0.8079    0.2942 C   0  0  0  0  0  0  0  0  0  0  0  0
    3.1130    0.4871    1.0021 C   0  0  0  0  0  0  0  0  0  0  0  0
    3.8241    0.9247   -0.2018 N   0  0  0  0  0  0  0  0  0  0  0  0
    3.1212   -0.0628   -0.9752 C   0  0  0  0  0  0  0  0  0  0  0  0
   -1.7714   -0.8889   -1.1093 C   0  0  0  0  0  0  0  0  0  0  0  0
   -3.1778   -0.5429   -1.0939 N   0  0  0  0  0  0  0  0  0  0  0  0
   -2.8139    2.2577    0.7751 H   0  0  0  0  0  0  0  0  0  0  0  0
   -1.6762    1.7577   -0.5794 H   0  0  0  0  0  0  0  0  0  0  0  0
   -2.7752   -0.2422    1.4252 H   0  0  0  0  0  0  0  0  0  0  0  0
   -1.3726    0.6904    1.9326 H   0  0  0  0  0  0  0  0  0  0  0  0
   -1.1081   -1.6370    0.7457 H   0  0  0  0  0  0  0  0  0  0  0  0
    0.5219    0.5975   -0.4433 H   0  0  0  0  0  0  0  0  0  0  0  0
    3.4394   -1.6427    0.5484 H   0  0  0  0  0  0  0  0  0  0  0  0
    2.2484    1.1403    1.2129 H   0  0  0  0  0  0  0  0  0  0  0  0
    3.7445    0.3801    1.8855 H   0  0  0  0  0  0  0  0  0  0  0  0
    3.6086    1.8982   -0.5012 H   0  0  0  0  0  0  0  0  0  0  0  0
    3.7966   -0.6296   -1.6477 H   0  0  0  0  0  0  0  0  0  0  0  0
    2.2321    0.2731   -1.5067 H   0  0  0  0  0  0  0  0  0  0  0  0
   -1.7268   -1.9734   -1.3961 H   0  0  0  0  0  0  0  0  0  0  0  0
   -1.2659   -0.3339   -1.9279 H   0  0  0  0  0  0  0  0  0  0  0  0
   -3.9465   -1.2127   -1.4012 H   0  0  0  0  0  0  0  0  0  0  0  0
  1  2  2  0
  2  3  1  0
  3  4  1  0
  4  5  1  0
  5  6  1  0
  6  7  1  0
  7  8  2  0
  7  9  1  0
  9 10  1  0
 10 11  1  0
 11 12  1  0
  5 13  1  0
 13 14  1  0
 14  2  1  0
 12  9  1  0
  3 15  1  0
  3 16  1  0
  4 17  1  0
  4 18  1  0
  5 19  1  1
  6 20  1  0
  9 21  1  0
 10 22  1  0
 10 23  1  0
 11 24  1  0
 12 25  1  0
 12 26  1  0
 13 27  1  0
 13 28  1  0
 14 29  1  0
M  END
$$$$

     RDKit          3D

 29 30  0  0  0  0  0  0  0  0999 V2000
    4.8097   -0.3128   -1.2320 O   0  0  0  0  0  0  0  0  0  0  0  0
    3.6611   -0.1444   -0.7698 C   0  0  0  0  0  0  0  0  0  0  0  0
    2.8981   -1.2999   -0.2370 C   0  0  0  0  0  0  0  0  0  0  0  0
    2.0711   -0.7350    0.9259 C   0  0  0  0  0  0  0  0  0  0  0  0
    1.0717    0.2973    0.4503 C   0  0  2  0  0  0  0  0  0  0  0  0
   -0.1645   -0.3211    0.0129 N   0  0  0  0  0  0  0  0  0  0  0  0
   -1.3800   -0.0088    0.6805 C   0  0  0  0  0  0  0  0  0  0  0  0
   -1.3171    0.8051    1.6359 O   0  0  0  0  0  0  0  0  0  0  0  0
   -2.6691   -0.6079    0.2788 C   0  0  0  0  0  0  0  0  0  0  0  0
   -3.0873   -0.3122   -1.1561 C   0  0  0  0  0  0  0  0  0  0  0  0
   -3.4709    1.0136   -0.6846 N   0  0  0  0  0  0  0  0  0  0  0  0
   -3.8139    0.3728    0.5741 C   0  0  0  0  0  0  0  0  0  0  0  0
    1.6005    1.1688   -0.6581 C   0  0  0  0  0  0  0  0  0  0  0  0
    3.0441    1.1311   -0.7327 N   0  0  0  0  0  0  0  0  0  0  0  0
    2.2143   -1.7399   -0.9897 H   0  0  0  0  0  0  0  0  0  0  0  0
    3.5537   -2.0695    0.2025 H   0  0  0  0  0  0  0  0  0  0  0  0
    2.7871   -0.2291    1.6098 H   0  0  0  0  0  0  0  0  0  0  0  0
    1.6038   -1.5904    1.4078 H   0  0  0  0  0  0  0  0  0  0  0  0
    0.8479    0.9670    1.3036 H   0  0  0  0  0  0  0  0  0  0  0  0
   -0.1452   -1.0016   -0.8034 H   0  0  0  0  0  0  0  0  0  0  0  0
   -2.8688   -1.6285    0.6251 H   0  0  0  0  0  0  0  0  0  0  0  0
   -4.0079   -0.8892   -1.3806 H   0  0  0  0  0  0  0  0  0  0  0  0
   -2.2920   -0.3410   -1.8970 H   0  0  0  0  0  0  0  0  0  0  0  0
   -2.5984    1.6026   -0.6372 H   0  0  0  0  0  0  0  0  0  0  0  0
   -3.5950    0.9634    1.4809 H   0  0  0  0  0  0  0  0  0  0  0  0
   -4.8175   -0.0706    0.5029 H   0  0  0  0  0  0  0  0  0  0  0  0
    1.1927    0.7723   -1.6324 H   0  0  0  0  0  0  0  0  0  0  0  0
    1.2389    2.2002   -0.5370 H   0  0  0  0  0  0  0  0  0  0  0  0
    3.6329    2.0079   -0.7595 H   0  0  0  0  0  0  0  0  0  0  0  0
  1  2  2  0
  2  3  1  0
  3  4  1  0
  4  5  1  0
  5  6  1  0
  6  7  1  0
  7  8  2  0
  7  9  1  0
  9 10  1  0
 10 11  1  0
 11 12  1  0
  5 13  1  0
 13 14  1  0
 14  2  1  0
 12  9  1  0
  3 15  1  0
  3 16  1  0
  4 17  1  0
  4 18  1  0
  5 19  1  1
  6 20  1  0
  9 21  1  0
 10 22  1  0
 10 23  1  0
 11 24  1  0
 12 25  1  0
 12 26  1  0
 13 27  1  0
 13 28  1  0
 14 29  1  0
M  END
$$$$

     RDKit          3D

 29 30  0  0  0  0  0  0  0  0999 V2000
   -5.2252    0.4267    0.0967 O   0  0  0  0  0  0  0  0  0  0  0  0
   -3.9771    0.2658    0.0722 C   0  0  0  0  0  0  0  0  0  0  0  0
   -3.2492   -0.6963    0.9423 C   0  0  0  0  0  0  0  0  0  0  0  0
   -1.8502   -0.0838    1.1277 C   0  0  0  0  0  0  0  0  0  0  0  0
   -1.1693   -0.2428   -0.1970 C   0  0  2  0  0  0  0  0  0  0  0  0
    0.1744    0.2651   -0.2232 N   0  0  0  0  0  0  0  0  0  0  0  0
    1.3316   -0.5031   -0.5189 C   0  0  0  0  0  0  0  0  0  0  0  0
    1.1360   -1.7201   -0.7741 O   0  0  0  0  0  0  0  0  0  0  0  0
    2.7047    0.0523   -0.5374 C   0  0  0  0  0  0  0  0  0  0  0  0
    3.1755    0.6504    0.7607 C   0  0  0  0  0  0  0  0  0  0  0  0
    4.4696    0.0002    0.5254 N   0  0  0  0  0  0  0  0  0  0  0  0
    3.8010   -0.9527   -0.3616 C   0  0  0  0  0  0  0  0  0  0  0  0
   -1.9429    0.4590   -1.2904 C   0  0  0  0  0  0  0  0  0  0  0  0
   -3.1894    1.0346   -0.8296 N   0  0  0  0  0  0  0  0  0  0  0  0
   -3.7433   -0.8867    1.8935 H   0  0  0  0  0  0  0  0  0  0  0  0
   -3.1122   -1.6223    0.3155 H   0  0  0  0  0  0  0  0  0  0  0  0
   -1.9894    0.9587    1.4358 H   0  0  0  0  0  0  0  0  0  0  0  0
   -1.3477   -0.7026    1.8870 H   0  0  0  0  0  0  0  0  0  0  0  0
   -1.2116   -1.3415   -0.4413 H   0  0  0  0  0  0  0  0  0  0  0  0
    0.3143    1.2755   -0.0090 H   0  0  0  0  0  0  0  0  0  0  0  0
    2.9354    0.7332   -1.3822 H   0  0  0  0  0  0  0  0  0  0  0  0
    3.2638    1.7558    0.7076 H   0  0  0  0  0  0  0  0  0  0  0  0
    2.7040    0.2635    1.6746 H   0  0  0  0  0  0  0  0  0  0  0  0
    5.1289    0.6376    0.0604 H   0  0  0  0  0  0  0  0  0  0  0  0
    3.5043   -1.8850    0.1777 H   0  0  0  0  0  0  0  0  0  0  0  0
    4.3844   -1.1885   -1.2839 H   0  0  0  0  0  0  0  0  0  0  0  0
   -2.1827   -0.2314   -2.1452 H   0  0  0  0  0  0  0  0  0  0  0  0
   -1.3394    1.2837   -1.7658 H   0  0  0  0  0  0  0  0  0  0  0  0
   -3.4983    1.9945   -1.1565 H   0  0  0  0  0  0  0  0  0  0  0  0
  1  2  2  0
  2  3  1  0
  3  4  1  0
  4  5  1  0
  5  6  1  0
  6  7  1  0
  7  8  2  0
  7  9  1  0
  9 10  1  0
 10 11  1  0
 11 12  1  0
  5 13  1  0
 13 14  1  0
 14  2  1  0
 12  9  1  0
  3 15  1  0
  3 16  1  0
  4 17  1  0
  4 18  1  0
  5 19  1  6
  6 20  1  0
  9 21  1  0
 10 22  1  0
 10 23  1  0
 11 24  1  0
 12 25  1  0
 12 26  1  0
 13 27  1  0
 13 28  1  0
 14 29  1  0
M  END
$$$$

     RDKit          3D

 29 30  0  0  0  0  0  0  0  0999 V2000
   -4.5659    0.4756    0.3654 O   0  0  0  0  0  0  0  0  0  0  0  0
   -3.5881   -0.0173   -0.2961 C   0  0  0  0  0  0  0  0  0  0  0  0
   -2.9044    0.7975   -1.3302 C   0  0  0  0  0  0  0  0  0  0  0  0
   -1.4179    0.5751   -1.3922 C   0  0  0  0  0  0  0  0  0  0  0  0
   -1.0022   -0.3131   -0.2598 C   0  0  2  0  0  0  0  0  0  0  0  0
    0.4077   -0.5116   -0.1628 N   0  0  0  0  0  0  0  0  0  0  0  0
    1.1585   -0.1524    0.9848 C   0  0  0  0  0  0  0  0  0  0  0  0
    0.5443    0.3661    1.9609 O   0  0  0  0  0  0  0  0  0  0  0  0
    2.6155   -0.3704    1.0544 C   0  0  0  0  0  0  0  0  0  0  0  0
    3.3854    0.3785   -0.0349 C   0  0  0  0  0  0  0  0  0  0  0  0
    3.2332    1.5721    0.7973 N   0  0  0  0  0  0  0  0  0  0  0  0
    3.2598    0.6764    1.9462 C   0  0  0  0  0  0  0  0  0  0  0  0
   -1.7584   -1.6427   -0.3942 C   0  0  0  0  0  0  0  0  0  0  0  0
   -3.1293   -1.3369   -0.0702 N   0  0  0  0  0  0  0  0  0  0  0  0
   -3.3882    0.5808   -2.3256 H   0  0  0  0  0  0  0  0  0  0  0  0
   -3.1485    1.8723   -1.1369 H   0  0  0  0  0  0  0  0  0  0  0  0
   -1.1178    0.1544   -2.3840 H   0  0  0  0  0  0  0  0  0  0  0  0
   -0.9059    1.5626   -1.2801 H   0  0  0  0  0  0  0  0  0  0  0  0
   -1.3764    0.1542    0.6828 H   0  0  0  0  0  0  0  0  0  0  0  0
    0.9205   -0.9460   -0.9810 H   0  0  0  0  0  0  0  0  0  0  0  0
    2.9472   -1.4008    1.2310 H   0  0  0  0  0  0  0  0  0  0  0  0
    4.4361    0.0448   -0.0711 H   0  0  0  0  0  0  0  0  0  0  0  0
    2.8922    0.4097   -1.0041 H   0  0  0  0  0  0  0  0  0  0  0  0
    2.3306    2.0722    0.6675 H   0  0  0  0  0  0  0  0  0  0  0  0
    4.3153    0.4493    2.2025 H   0  0  0  0  0  0  0  0  0  0  0  0
    2.6322    1.0250    2.7798 H   0  0  0  0  0  0  0  0  0  0  0  0
   -1.7014   -2.0084   -1.4359 H   0  0  0  0  0  0  0  0  0  0  0  0
   -1.3183   -2.4096    0.2749 H   0  0  0  0  0  0  0  0  0  0  0  0
   -3.7557   -2.0571    0.3149 H   0  0  0  0  0  0  0  0  0  0  0  0
  1  2  2  0
  2  3  1  0
  3  4  1  0
  4  5  1  0
  5  6  1  0
  6  7  1  0
  7  8  2  0
  7  9  1  0
  9 10  1  0
 10 11  1  0
 11 12  1  0
  5 13  1  0
 13 14  1  0
 14  2  1  0
 12  9  1  0
  3 15  1  0
  3 16  1  0
  4 17  1  0
  4 18  1  0
  5 19  1  1
  6 20  1  0
  9 21  1  0
 10 22  1  0
 10 23  1  0
 11 24  1  0
 12 25  1  0
 12 26  1  0
 13 27  1  0
 13 28  1  0
 14 29  1  0
M  END
$$$$

     RDKit          3D

 29 30  0  0  0  0  0  0  0  0999 V2000
   -5.0535   -0.1034   -0.9231 O   0  0  0  0  0  0  0  0  0  0  0  0
   -3.8685   -0.1564   -0.5168 C   0  0  0  0  0  0  0  0  0  0  0  0
   -3.5214    0.0814    0.8985 C   0  0  0  0  0  0  0  0  0  0  0  0
   -2.0855    0.5481    0.9278 C   0  0  0  0  0  0  0  0  0  0  0  0
   -1.1312   -0.4264    0.3162 C   0  0  2  0  0  0  0  0  0  0  0  0
    0.0924    0.3287    0.0065 N   0  0  0  0  0  0  0  0  0  0  0  0
    1.3411   -0.0162    0.5733 C   0  0  0  0  0  0  0  0  0  0  0  0
    1.3925   -0.9883    1.3548 O   0  0  0  0  0  0  0  0  0  0  0  0
    2.5245    0.7758    0.2248 C   0  0  0  0  0  0  0  0  0  0  0  0
    3.7757    0.2513    0.9345 C   0  0  0  0  0  0  0  0  0  0  0  0
    3.8766   -0.7288   -0.1485 N   0  0  0  0  0  0  0  0  0  0  0  0
    3.2698    0.2929   -1.0123 C   0  0  0  0  0  0  0  0  0  0  0  0
   -1.6128   -1.0127   -0.9867 C   0  0  0  0  0  0  0  0  0  0  0  0
   -2.8488   -0.4538   -1.4556 N   0  0  0  0  0  0  0  0  0  0  0  0
   -3.6772   -0.7994    1.5453 H   0  0  0  0  0  0  0  0  0  0  0  0
   -4.1314    0.9123    1.3250 H   0  0  0  0  0  0  0  0  0  0  0  0
   -2.0505    1.4807    0.3041 H   0  0  0  0  0  0  0  0  0  0  0  0
   -1.7253    0.8199    1.9208 H   0  0  0  0  0  0  0  0  0  0  0  0
   -0.9094   -1.2517    1.0217 H   0  0  0  0  0  0  0  0  0  0  0  0
   -0.0185    1.1249   -0.6498 H   0  0  0  0  0  0  0  0  0  0  0  0
    2.4199    1.8589    0.2160 H   0  0  0  0  0  0  0  0  0  0  0  0
    4.5647    1.0248    0.8872 H   0  0  0  0  0  0  0  0  0  0  0  0
    3.5401   -0.1583    1.9188 H   0  0  0  0  0  0  0  0  0  0  0  0
    4.8317   -1.0058   -0.4024 H   0  0  0  0  0  0  0  0  0  0  0  0
    2.5863   -0.1037   -1.7742 H   0  0  0  0  0  0  0  0  0  0  0  0
    4.0076    1.0370   -1.3337 H   0  0  0  0  0  0  0  0  0  0  0  0
   -1.7772   -2.1227   -0.8792 H   0  0  0  0  0  0  0  0  0  0  0  0
   -0.8351   -0.9355   -1.7977 H   0  0  0  0  0  0  0  0  0  0  0  0
   -2.9767   -0.2735   -2.4952 H   0  0  0  0  0  0  0  0  0  0  0  0
  1  2  2  0
  2  3  1  0
  3  4  1  0
  4  5  1  0
  5  6  1  0
  6  7  1  0
  7  8  2  0
  7  9  1  0
  9 10  1  0
 10 11  1  0
 11 12  1  0
  5 13  1  0
 13 14  1  0
 14  2  1  0
 12  9  1  0
  3 15  1  0
  3 16  1  0
  4 17  1  0
  4 18  1  0
  5 19  1  1
  6 20  1  0
  9 21  1  0
 10 22  1  0
 10 23  1  0
 11 24  1  0
 12 25  1  0
 12 26  1  0
 13 27  1  0
 13 28  1  0
 14 29  1  0
M  END
$$$$

     RDKit          3D

 29 30  0  0  0  0  0  0  0  0999 V2000
   -5.0950   -0.3406   -0.9035 O   0  0  0  0  0  0  0  0  0  0  0  0
   -3.8916   -0.2242   -0.5070 C   0  0  0  0  0  0  0  0  0  0  0  0
   -3.0786    0.9098   -0.9798 C   0  0  0  0  0  0  0  0  0  0  0  0
   -1.6315    0.5066   -1.2418 C   0  0  0  0  0  0  0  0  0  0  0  0
   -1.1305   -0.1411    0.0284 C   0  0  2  0  0  0  0  0  0  0  0  0
    0.2743   -0.4316   -0.0001 N   0  0  0  0  0  0  0  0  0  0  0  0
    1.1981    0.1625    0.9159 C   0  0  0  0  0  0  0  0  0  0  0  0
    0.7101    0.9607    1.7559 O   0  0  0  0  0  0  0  0  0  0  0  0
    2.6246   -0.1733    0.8384 C   0  0  0  0  0  0  0  0  0  0  0  0
    3.2017    0.2028   -0.5269 C   0  0  0  0  0  0  0  0  0  0  0  0
    4.4448    0.5297    0.1897 N   0  0  0  0  0  0  0  0  0  0  0  0
    3.5798    0.8940    1.3230 C   0  0  0  0  0  0  0  0  0  0  0  0
   -1.9036   -1.3843    0.3715 C   0  0  0  0  0  0  0  0  0  0  0  0
   -3.3248   -1.1661    0.3793 N   0  0  0  0  0  0  0  0  0  0  0  0
   -3.4924    1.2431   -1.9543 H   0  0  0  0  0  0  0  0  0  0  0  0
   -3.1220    1.7801   -0.2916 H   0  0  0  0  0  0  0  0  0  0  0  0
   -1.6498   -0.1828   -2.0926 H   0  0  0  0  0  0  0  0  0  0  0  0
   -1.0559    1.4293   -1.4012 H   0  0  0  0  0  0  0  0  0  0  0  0
   -1.3324    0.5938    0.8577 H   0  0  0  0  0  0  0  0  0  0  0  0
    0.6431   -1.1047   -0.7181 H   0  0  0  0  0  0  0  0  0  0  0  0
    2.9366   -1.1507    1.2091 H   0  0  0  0  0  0  0  0  0  0  0  0
    2.7157    1.1176   -0.9037 H   0  0  0  0  0  0  0  0  0  0  0  0
    3.3360   -0.6283   -1.2180 H   0  0  0  0  0  0  0  0  0  0  0  0
    4.9058   -0.3958    0.4352 H   0  0  0  0  0  0  0  0  0  0  0  0
    4.1075    0.6673    2.2713 H   0  0  0  0  0  0  0  0  0  0  0  0
    3.2245    1.9272    1.2172 H   0  0  0  0  0  0  0  0  0  0  0  0
   -1.6067   -2.2673   -0.2265 H   0  0  0  0  0  0  0  0  0  0  0  0
   -1.6216   -1.6429    1.4343 H   0  0  0  0  0  0  0  0  0  0  0  0
   -3.9660   -1.6906    1.0307 H   0  0  0  0  0  0  0  0  0  0  0  0
  1  2  2  0
  2  3  1  0
  3  4  1  0
  4  5  1  0
  5  6  1  0
  6  7  1  0
  7  8  2  0
  7  9  1  0
  9 10  1  0
 10 11  1  0
 11 12  1  0
  5 13  1  0
 13 14  1  0
 14  2  1  0
 12  9  1  0
  3 15  1  0
  3 16  1  0
  4 17  1  0
  4 18  1  0
  5 19  1  1
  6 20  1  0
  9 21  1  0
 10 22  1  0
 10 23  1  0
 11 24  1  0
 12 25  1  0
 12 26  1  0
 13 27  1  0
 13 28  1  0
 14 29  1  0
M  END
$$$$

     RDKit          3D

 29 30  0  0  0  0  0  0  0  0999 V2000
   -5.1204    0.2151   -0.5099 O   0  0  0  0  0  0  0  0  0  0  0  0
   -3.8879    0.1918   -0.2584 C   0  0  0  0  0  0  0  0  0  0  0  0
   -3.3634   -0.8467    0.6609 C   0  0  0  0  0  0  0  0  0  0  0  0
   -2.0503   -0.3839    1.3068 C   0  0  0  0  0  0  0  0  0  0  0  0
   -1.1713    0.0930    0.1770 C   0  0  2  0  0  0  0  0  0  0  0  0
    0.2011    0.2494    0.5547 N   0  0  0  0  0  0  0  0  0  0  0  0
    1.2791   -0.4988    0.0032 C   0  0  0  0  0  0  0  0  0  0  0  0
    0.9805   -1.3455   -0.8703 O   0  0  0  0  0  0  0  0  0  0  0  0
    2.6793   -0.3316    0.3959 C   0  0  0  0  0  0  0  0  0  0  0  0
    3.6179   -1.2551   -0.3495 C   0  0  0  0  0  0  0  0  0  0  0  0
    4.6014   -0.1662   -0.3171 N   0  0  0  0  0  0  0  0  0  0  0  0
    3.4489    0.7489   -0.3321 C   0  0  0  0  0  0  0  0  0  0  0  0
   -1.7390    1.3676   -0.3719 C   0  0  0  0  0  0  0  0  0  0  0  0
   -3.0714    1.1688   -0.8754 N   0  0  0  0  0  0  0  0  0  0  0  0
   -4.1225   -0.9815    1.4614 H   0  0  0  0  0  0  0  0  0  0  0  0
   -3.2353   -1.7976    0.1222 H   0  0  0  0  0  0  0  0  0  0  0  0
   -2.3278    0.4088    2.0122 H   0  0  0  0  0  0  0  0  0  0  0  0
   -1.6112   -1.2732    1.7670 H   0  0  0  0  0  0  0  0  0  0  0  0
   -1.2102   -0.7083   -0.6101 H   0  0  0  0  0  0  0  0  0  0  0  0
    0.4462    0.9579    1.2848 H   0  0  0  0  0  0  0  0  0  0  0  0
    2.8553   -0.2862    1.4855 H   0  0  0  0  0  0  0  0  0  0  0  0
    3.8817   -2.1182    0.2650 H   0  0  0  0  0  0  0  0  0  0  0  0
    3.2553   -1.4967   -1.3610 H   0  0  0  0  0  0  0  0  0  0  0  0
    5.2080   -0.1100   -1.1410 H   0  0  0  0  0  0  0  0  0  0  0  0
    3.6336    1.6731    0.2224 H   0  0  0  0  0  0  0  0  0  0  0  0
    3.0279    0.8982   -1.3569 H   0  0  0  0  0  0  0  0  0  0  0  0
   -1.7822    2.1022    0.4757 H   0  0  0  0  0  0  0  0  0  0  0  0
   -1.0409    1.7661   -1.1490 H   0  0  0  0  0  0  0  0  0  0  0  0
   -3.3825    1.7586   -1.6816 H   0  0  0  0  0  0  0  0  0  0  0  0
  1  2  2  0
  2  3  1  0
  3  4  1  0
  4  5  1  0
  5  6  1  0
  6  7  1  0
  7  8  2  0
  7  9  1  0
  9 10  1  0
 10 11  1  0
 11 12  1  0
  5 13  1  0
 13 14  1  0
 14  2  1  0
 12  9  1  0
  3 15  1  0
  3 16  1  0
  4 17  1  0
  4 18  1  0
  5 19  1  6
  6 20  1  0
  9 21  1  0
 10 22  1  0
 10 23  1  0
 11 24  1  0
 12 25  1  0
 12 26  1  0
 13 27  1  0
 13 28  1  0
 14 29  1  0
M  END
$$$$

     RDKit          3D

 29 30  0  0  0  0  0  0  0  0999 V2000
   -4.7117    0.6968   -1.7286 O   0  0  0  0  0  0  0  0  0  0  0  0
   -3.6278    0.4204   -1.1864 C   0  0  0  0  0  0  0  0  0  0  0  0
   -3.4269    0.4233    0.2800 C   0  0  0  0  0  0  0  0  0  0  0  0
   -1.9716    0.8980    0.4571 C   0  0  0  0  0  0  0  0  0  0  0  0
   -1.1125   -0.2385    0.0359 C   0  0  2  0  0  0  0  0  0  0  0  0
    0.2894   -0.0108    0.0610 N   0  0  0  0  0  0  0  0  0  0  0  0
    1.1695   -0.7485    0.8634 C   0  0  0  0  0  0  0  0  0  0  0  0
    0.6452   -1.6407    1.5752 O   0  0  0  0  0  0  0  0  0  0  0  0
    2.6334   -0.5315    0.9082 C   0  0  0  0  0  0  0  0  0  0  0  0
    3.3310   -0.7214   -0.4121 C   0  0  0  0  0  0  0  0  0  0  0  0
    4.1038    0.4630   -0.1428 N   0  0  0  0  0  0  0  0  0  0  0  0
    3.0980    0.8822    0.8098 C   0  0  0  0  0  0  0  0  0  0  0  0
   -1.4883   -0.7348   -1.3431 C   0  0  0  0  0  0  0  0  0  0  0  0
   -2.5060    0.0810   -1.9757 N   0  0  0  0  0  0  0  0  0  0  0  0
   -3.5243   -0.6243    0.6334 H   0  0  0  0  0  0  0  0  0  0  0  0
   -4.1261    1.1130    0.7787 H   0  0  0  0  0  0  0  0  0  0  0  0
   -1.8426    1.0916    1.5418 H   0  0  0  0  0  0  0  0  0  0  0  0
   -1.9010    1.7942   -0.1682 H   0  0  0  0  0  0  0  0  0  0  0  0
   -1.3298   -1.0830    0.7550 H   0  0  0  0  0  0  0  0  0  0  0  0
    0.6751    0.7486   -0.5546 H   0  0  0  0  0  0  0  0  0  0  0  0
    3.1020   -1.0445    1.7712 H   0  0  0  0  0  0  0  0  0  0  0  0
    3.9660   -1.6207   -0.4922 H   0  0  0  0  0  0  0  0  0  0  0  0
    2.6089   -0.5964   -1.2386 H   0  0  0  0  0  0  0  0  0  0  0  0
    5.0051    0.3304    0.3265 H   0  0  0  0  0  0  0  0  0  0  0  0
    3.4830    1.3542    1.7291 H   0  0  0  0  0  0  0  0  0  0  0  0
    2.3669    1.5506    0.2954 H   0  0  0  0  0  0  0  0  0  0  0  0
   -0.5929   -0.8533   -1.9875 H   0  0  0  0  0  0  0  0  0  0  0  0
   -1.9408   -1.7702   -1.2952 H   0  0  0  0  0  0  0  0  0  0  0  0
   -2.3748    0.3714   -2.9469 H   0  0  0  0  0  0  0  0  0  0  0  0
  1  2  2  0
  2  3  1  0
  3  4  1  0
  4  5  1  0
  5  6  1  0
  6  7  1  0
  7  8  2  0
  7  9  1  0
  9 10  1  0
 10 11  1  0
 11 12  1  0
  5 13  1  0
 13 14  1  0
 14  2  1  0
 12  9  1  0
  3 15  1  0
  3 16  1  0
  4 17  1  0
  4 18  1  0
  5 19  1  1
  6 20  1  0
  9 21  1  0
 10 22  1  0
 10 23  1  0
 11 24  1  0
 12 25  1  0
 12 26  1  0
 13 27  1  0
 13 28  1  0
 14 29  1  0
M  END
$$$$
