
     RDKit          3D

 28 27  0  0  0  0  0  0  0  0999 V2000
   -3.3463    0.2507    1.7486 C   0  0  0  0  0  0  0  0  0  0  0  0
   -2.6271    0.4030    0.4462 C   0  0  2  0  0  0  0  0  0  0  0  0
   -3.5198   -0.0537   -0.7017 C   0  0  0  0  0  0  0  0  0  0  0  0
   -4.7099    0.6571   -0.7018 O   0  0  0  0  0  0  0  0  0  0  0  0
   -1.3910   -0.3757    0.3996 N   0  0  0  0  0  0  0  0  0  0  0  0
   -0.1300    0.2268    0.1706 C   0  0  0  0  0  0  0  0  0  0  0  0
   -0.1212    1.4803    0.0067 O   0  0  0  0  0  0  0  0  0  0  0  0
    1.1418   -0.5515    0.1197 C   0  0  0  0  0  0  0  0  0  0  0  0
    2.1883    0.3141   -0.1178 O   0  0  0  0  0  0  0  0  0  0  0  0
    3.3968   -0.3613   -0.1744 C   0  0  0  0  0  0  0  0  0  0  0  0
    4.4989    0.6712   -0.4403 C   0  0  0  0  0  0  0  0  0  0  0  0
    4.2252    1.3361   -1.7041 N   0  0  0  0  0  0  0  0  0  0  0  0
   -2.6340   -0.0011    2.5766 H   0  0  0  0  0  0  0  0  0  0  0  0
   -3.9036    1.1817    2.0402 H   0  0  0  0  0  0  0  0  0  0  0  0
   -4.0869   -0.5598    1.7140 H   0  0  0  0  0  0  0  0  0  0  0  0
   -2.4243    1.4792    0.2821 H   0  0  0  0  0  0  0  0  0  0  0  0
   -3.0248    0.0898   -1.6710 H   0  0  0  0  0  0  0  0  0  0  0  0
   -3.7496   -1.1333   -0.5940 H   0  0  0  0  0  0  0  0  0  0  0  0
   -5.2127    0.5287    0.1292 H   0  0  0  0  0  0  0  0  0  0  0  0
   -1.4423   -1.4080    0.5398 H   0  0  0  0  0  0  0  0  0  0  0  0
    1.2494   -1.1355    1.0463 H   0  0  0  0  0  0  0  0  0  0  0  0
    1.0934   -1.2835   -0.7255 H   0  0  0  0  0  0  0  0  0  0  0  0
    3.6311   -0.8494    0.7772 H   0  0  0  0  0  0  0  0  0  0  0  0
    3.3988   -1.1427   -0.9589 H   0  0  0  0  0  0  0  0  0  0  0  0
    5.4784    0.1538   -0.5568 H   0  0  0  0  0  0  0  0  0  0  0  0
    4.4945    1.4318    0.3398 H   0  0  0  0  0  0  0  0  0  0  0  0
    3.8011    0.7006   -2.3950 H   0  0  0  0  0  0  0  0  0  0  0  0
    3.7258    2.2311   -1.5955 H   0  0  0  0  0  0  0  0  0  0  0  0
  1  2  1  0
  2  3  1  0
  3  4  1  0
  2  5  1  0
  5  6  1  0
  6  7  2  0
  6  8  1  0
  8  9  1  0
  9 10  1  0
 10 11  1  0
 11 12  1  0
  1 13  1  0
  1 14  1  0
  1 15  1  0
  2 16  1  6
  3 17  1  0
  3 18  1  0
  4 19  1  0
  5 20  1  0
  8 21  1  0
  8 22  1  0
 10 23  1  0
 10 24  1  0
 11 25  1  0
 11 26  1  0
 12 27  1  0
 12 28  1  0
M  END
$$$$

     RDKit          3D

 28 27  0  0  0  0  0  0  0  0999 V2000
    3.6238    1.3478    0.3130 C   0  0  0  0  0  0  0  0  0  0  0  0
    2.8789    0.0380    0.4585 C   0  0  2  0  0  0  0  0  0  0  0  0
    3.5094   -1.0200   -0.4408 C   0  0  0  0  0  0  0  0  0  0  0  0
    3.4774   -0.5782   -1.7594 O   0  0  0  0  0  0  0  0  0  0  0  0
    1.5057    0.2619    0.0554 N   0  0  0  0  0  0  0  0  0  0  0  0
    0.4193    0.0556    0.9268 C   0  0  0  0  0  0  0  0  0  0  0  0
    0.7122   -0.3435    2.1031 O   0  0  0  0  0  0  0  0  0  0  0  0
   -1.0003    0.2802    0.5316 C   0  0  0  0  0  0  0  0  0  0  0  0
   -1.7973   -0.0081    1.5956 O   0  0  0  0  0  0  0  0  0  0  0  0
   -3.1294    0.1317    1.4449 C   0  0  0  0  0  0  0  0  0  0  0  0
   -3.7792   -0.6976    0.3865 C   0  0  0  0  0  0  0  0  0  0  0  0
   -5.2074   -0.4399    0.3433 N   0  0  0  0  0  0  0  0  0  0  0  0
    4.3847    1.4540    1.1289 H   0  0  0  0  0  0  0  0  0  0  0  0
    2.8953    2.1916    0.3315 H   0  0  0  0  0  0  0  0  0  0  0  0
    4.1386    1.3772   -0.6689 H   0  0  0  0  0  0  0  0  0  0  0  0
    2.9086   -0.3025    1.5089 H   0  0  0  0  0  0  0  0  0  0  0  0
    3.0647   -2.0033   -0.2935 H   0  0  0  0  0  0  0  0  0  0  0  0
    4.5898   -1.1103   -0.1705 H   0  0  0  0  0  0  0  0  0  0  0  0
    2.8182   -1.0726   -2.3063 H   0  0  0  0  0  0  0  0  0  0  0  0
    1.3463    0.5873   -0.9202 H   0  0  0  0  0  0  0  0  0  0  0  0
   -1.0751    1.3437    0.2142 H   0  0  0  0  0  0  0  0  0  0  0  0
   -1.1709   -0.4078   -0.3481 H   0  0  0  0  0  0  0  0  0  0  0  0
   -3.3846    1.2108    1.2378 H   0  0  0  0  0  0  0  0  0  0  0  0
   -3.6271   -0.0967    2.4099 H   0  0  0  0  0  0  0  0  0  0  0  0
   -3.3890   -0.5269   -0.6262 H   0  0  0  0  0  0  0  0  0  0  0  0
   -3.6631   -1.7824    0.5987 H   0  0  0  0  0  0  0  0  0  0  0  0
   -5.6155   -0.3266    1.2933 H   0  0  0  0  0  0  0  0  0  0  0  0
   -5.4343    0.4367   -0.1929 H   0  0  0  0  0  0  0  0  0  0  0  0
  1  2  1  0
  2  3  1  0
  3  4  1  0
  2  5  1  0
  5  6  1  0
  6  7  2  0
  6  8  1  0
  8  9  1  0
  9 10  1  0
 10 11  1  0
 11 12  1  0
  1 13  1  0
  1 14  1  0
  1 15  1  0
  2 16  1  1
  3 17  1  0
  3 18  1  0
  4 19  1  0
  5 20  1  0
  8 21  1  0
  8 22  1  0
 10 23  1  0
 10 24  1  0
 11 25  1  0
 11 26  1  0
 12 27  1  0
 12 28  1  0
M  END
$$$$

     RDKit          3D

 28 27  0  0  0  0  0  0  0  0999 V2000
    3.4288   -1.3818   -1.2423 C   0  0  0  0  0  0  0  0  0  0  0  0
    2.8183   -0.1516   -0.6239 C   0  0  2  0  0  0  0  0  0  0  0  0
    3.5778    0.2364    0.6482 C   0  0  0  0  0  0  0  0  0  0  0  0
    3.0063    1.3298    1.2538 O   0  0  0  0  0  0  0  0  0  0  0  0
    1.4365   -0.4769   -0.2934 N   0  0  0  0  0  0  0  0  0  0  0  0
    0.3366    0.2230   -0.8632 C   0  0  0  0  0  0  0  0  0  0  0  0
    0.5907    1.1464   -1.6741 O   0  0  0  0  0  0  0  0  0  0  0  0
   -1.0672   -0.1617   -0.4803 C   0  0  0  0  0  0  0  0  0  0  0  0
   -1.9045    0.6787   -1.1811 O   0  0  0  0  0  0  0  0  0  0  0  0
   -3.2500    0.4631   -0.9657 C   0  0  0  0  0  0  0  0  0  0  0  0
   -3.6576    0.6414    0.4692 C   0  0  0  0  0  0  0  0  0  0  0  0
   -5.0933    0.4049    0.6387 N   0  0  0  0  0  0  0  0  0  0  0  0
    2.6307   -1.9989   -1.6994 H   0  0  0  0  0  0  0  0  0  0  0  0
    4.1629   -1.1380   -2.0398 H   0  0  0  0  0  0  0  0  0  0  0  0
    3.9840   -1.9193   -0.4483 H   0  0  0  0  0  0  0  0  0  0  0  0
    2.8893    0.6711   -1.3415 H   0  0  0  0  0  0  0  0  0  0  0  0
    3.5416   -0.6498    1.3072 H   0  0  0  0  0  0  0  0  0  0  0  0
    4.6228    0.4465    0.3623 H   0  0  0  0  0  0  0  0  0  0  0  0
    3.6787    2.0295    1.5203 H   0  0  0  0  0  0  0  0  0  0  0  0
    1.2353   -1.2467    0.3823 H   0  0  0  0  0  0  0  0  0  0  0  0
   -1.2335   -1.2013   -0.8381 H   0  0  0  0  0  0  0  0  0  0  0  0
   -1.1708   -0.0737    0.6290 H   0  0  0  0  0  0  0  0  0  0  0  0
   -3.4807   -0.5643   -1.3322 H   0  0  0  0  0  0  0  0  0  0  0  0
   -3.8278    1.1496   -1.6352 H   0  0  0  0  0  0  0  0  0  0  0  0
   -3.3415    1.6257    0.8117 H   0  0  0  0  0  0  0  0  0  0  0  0
   -3.1219   -0.1295    1.0904 H   0  0  0  0  0  0  0  0  0  0  0  0
   -5.2242   -0.6099    0.8416 H   0  0  0  0  0  0  0  0  0  0  0  0
   -5.5672    0.6572   -0.2724 H   0  0  0  0  0  0  0  0  0  0  0  0
  1  2  1  0
  2  3  1  0
  3  4  1  0
  2  5  1  0
  5  6  1  0
  6  7  2  0
  6  8  1  0
  8  9  1  0
  9 10  1  0
 10 11  1  0
 11 12  1  0
  1 13  1  0
  1 14  1  0
  1 15  1  0
  2 16  1  6
  3 17  1  0
  3 18  1  0
  4 19  1  0
  5 20  1  0
  8 21  1  0
  8 22  1  0
 10 23  1  0
 10 24  1  0
 11 25  1  0
 11 26  1  0
 12 27  1  0
 12 28  1  0
M  END
$$$$

     RDKit          3D

 28 27  0  0  0  0  0  0  0  0999 V2000
   -3.4583    1.2804   -0.1650 C   0  0  0  0  0  0  0  0  0  0  0  0
   -2.3235    0.2994   -0.4746 C   0  0  2  0  0  0  0  0  0  0  0  0
   -2.8464   -1.0784   -0.0758 C   0  0  0  0  0  0  0  0  0  0  0  0
   -3.1619   -1.0205    1.2900 O   0  0  0  0  0  0  0  0  0  0  0  0
   -1.1449    0.6303    0.3001 N   0  0  0  0  0  0  0  0  0  0  0  0
    0.0773    0.9658   -0.3547 C   0  0  0  0  0  0  0  0  0  0  0  0
    0.1045    0.9670   -1.6048 O   0  0  0  0  0  0  0  0  0  0  0  0
    1.2430    1.2935    0.4891 C   0  0  0  0  0  0  0  0  0  0  0  0
    2.3976    1.5901   -0.1787 O   0  0  0  0  0  0  0  0  0  0  0  0
    2.9200    0.6101   -0.9762 C   0  0  0  0  0  0  0  0  0  0  0  0
    3.2576   -0.6524   -0.2043 C   0  0  0  0  0  0  0  0  0  0  0  0
    4.2249   -0.3672    0.8163 N   0  0  0  0  0  0  0  0  0  0  0  0
   -4.4184    0.7732   -0.3458 H   0  0  0  0  0  0  0  0  0  0  0  0
   -3.4364    1.5618    0.9006 H   0  0  0  0  0  0  0  0  0  0  0  0
   -3.3981    2.1795   -0.8337 H   0  0  0  0  0  0  0  0  0  0  0  0
   -2.1261    0.3485   -1.5634 H   0  0  0  0  0  0  0  0  0  0  0  0
   -3.7670   -1.3082   -0.6343 H   0  0  0  0  0  0  0  0  0  0  0  0
   -2.0819   -1.8615   -0.2370 H   0  0  0  0  0  0  0  0  0  0  0  0
   -4.0756   -1.4011    1.4588 H   0  0  0  0  0  0  0  0  0  0  0  0
   -1.2249    0.6134    1.3357 H   0  0  0  0  0  0  0  0  0  0  0  0
    0.9672    2.2154    1.0801 H   0  0  0  0  0  0  0  0  0  0  0  0
    1.3830    0.4315    1.2064 H   0  0  0  0  0  0  0  0  0  0  0  0
    2.3059    0.3346   -1.8430 H   0  0  0  0  0  0  0  0  0  0  0  0
    3.9019    0.9842   -1.3723 H   0  0  0  0  0  0  0  0  0  0  0  0
    3.7375   -1.3432   -0.9387 H   0  0  0  0  0  0  0  0  0  0  0  0
    2.3373   -1.1070    0.2234 H   0  0  0  0  0  0  0  0  0  0  0  0
    4.8167   -1.1740    1.0736 H   0  0  0  0  0  0  0  0  0  0  0  0
    3.7891    0.1158    1.6283 H   0  0  0  0  0  0  0  0  0  0  0  0
  1  2  1  0
  2  3  1  0
  3  4  1  0
  2  5  1  0
  5  6  1  0
  6  7  2  0
  6  8  1  0
  8  9  1  0
  9 10  1  0
 10 11  1  0
 11 12  1  0
  1 13  1  0
  1 14  1  0
  1 15  1  0
  2 16  1  6
  3 17  1  0
  3 18  1  0
  4 19  1  0
  5 20  1  0
  8 21  1  0
  8 22  1  0
 10 23  1  0
 10 24  1  0
 11 25  1  0
 11 26  1  0
 12 27  1  0
 12 28  1  0
M  END
$$$$

     RDKit          3D

 28 27  0  0  0  0  0  0  0  0999 V2000
   -3.3626    0.1925    1.2326 C   0  0  0  0  0  0  0  0  0  0  0  0
   -2.7381   -0.0472   -0.1136 C   0  0  2  0  0  0  0  0  0  0  0  0
   -3.4950   -1.1448   -0.8005 C   0  0  0  0  0  0  0  0  0  0  0  0
   -2.9872   -1.3924   -2.0894 O   0  0  0  0  0  0  0  0  0  0  0  0
   -1.3388   -0.3211    0.0571 N   0  0  0  0  0  0  0  0  0  0  0  0
   -0.3088    0.4716   -0.4726 C   0  0  0  0  0  0  0  0  0  0  0  0
   -0.6028    1.4773   -1.1335 O   0  0  0  0  0  0  0  0  0  0  0  0
    1.1061    0.1092   -0.2437 C   0  0  0  0  0  0  0  0  0  0  0  0
    1.9851    0.9710   -0.8181 O   0  0  0  0  0  0  0  0  0  0  0  0
    3.3088    0.7411   -0.7255 C   0  0  0  0  0  0  0  0  0  0  0  0
    3.9559    0.6873    0.6059 C   0  0  0  0  0  0  0  0  0  0  0  0
    3.4436   -0.3416    1.4554 N   0  0  0  0  0  0  0  0  0  0  0  0
   -4.4261   -0.1253    1.2275 H   0  0  0  0  0  0  0  0  0  0  0  0
   -3.3636    1.2694    1.5163 H   0  0  0  0  0  0  0  0  0  0  0  0
   -2.8304   -0.3804    2.0273 H   0  0  0  0  0  0  0  0  0  0  0  0
   -2.8507    0.8703   -0.7172 H   0  0  0  0  0  0  0  0  0  0  0  0
   -4.5317   -0.7713   -0.9616 H   0  0  0  0  0  0  0  0  0  0  0  0
   -3.5870   -2.0658   -0.2064 H   0  0  0  0  0  0  0  0  0  0  0  0
   -2.6210   -0.5267   -2.4388 H   0  0  0  0  0  0  0  0  0  0  0  0
   -1.1128   -1.1902    0.6284 H   0  0  0  0  0  0  0  0  0  0  0  0
    1.2849   -0.9090   -0.6710 H   0  0  0  0  0  0  0  0  0  0  0  0
    1.2866    0.0119    0.8532 H   0  0  0  0  0  0  0  0  0  0  0  0
    3.5740   -0.2175   -1.2501 H   0  0  0  0  0  0  0  0  0  0  0  0
    3.8344    1.5600   -1.3070 H   0  0  0  0  0  0  0  0  0  0  0  0
    5.0561    0.5593    0.4307 H   0  0  0  0  0  0  0  0  0  0  0  0
    3.8360    1.6748    1.1134 H   0  0  0  0  0  0  0  0  0  0  0  0
    3.3940   -0.0005    2.4212 H   0  0  0  0  0  0  0  0  0  0  0  0
    4.0908   -1.1619    1.4474 H   0  0  0  0  0  0  0  0  0  0  0  0
  1  2  1  0
  2  3  1  0
  3  4  1  0
  2  5  1  0
  5  6  1  0
  6  7  2  0
  6  8  1  0
  8  9  1  0
  9 10  1  0
 10 11  1  0
 11 12  1  0
  1 13  1  0
  1 14  1  0
  1 15  1  0
  2 16  1  6
  3 17  1  0
  3 18  1  0
  4 19  1  0
  5 20  1  0
  8 21  1  0
  8 22  1  0
 10 23  1  0
 10 24  1  0
 11 25  1  0
 11 26  1  0
 12 27  1  0
 12 28  1  0
M  END
$$$$

     RDKit          3D

 28 27  0  0  0  0  0  0  0  0999 V2000
   -3.2069    1.2803   -1.3287 C   0  0  0  0  0  0  0  0  0  0  0  0
   -2.3369    0.1754   -0.7824 C   0  0  2  0  0  0  0  0  0  0  0  0
   -3.2370   -0.6921    0.0962 C   0  0  0  0  0  0  0  0  0  0  0  0
   -3.7034    0.1311    1.1203 O   0  0  0  0  0  0  0  0  0  0  0  0
   -1.2760    0.6482    0.0603 N   0  0  0  0  0  0  0  0  0  0  0  0
    0.0947    0.2713   -0.1434 C   0  0  0  0  0  0  0  0  0  0  0  0
    0.2877   -0.4953   -1.1057 O   0  0  0  0  0  0  0  0  0  0  0  0
    1.0807    0.8201    0.7829 C   0  0  0  0  0  0  0  0  0  0  0  0
    2.3782    0.4506    0.6049 O   0  0  0  0  0  0  0  0  0  0  0  0
    2.6501   -0.8828    0.7175 C   0  0  0  0  0  0  0  0  0  0  0  0
    4.1454   -1.0625    0.4906 C   0  0  0  0  0  0  0  0  0  0  0  0
    4.5133   -0.5858   -0.8328 N   0  0  0  0  0  0  0  0  0  0  0  0
   -2.6541    2.1600   -1.6597 H   0  0  0  0  0  0  0  0  0  0  0  0
   -3.9689    1.6168   -0.5941 H   0  0  0  0  0  0  0  0  0  0  0  0
   -3.8040    0.8126   -2.1663 H   0  0  0  0  0  0  0  0  0  0  0  0
   -1.9609   -0.4943   -1.5791 H   0  0  0  0  0  0  0  0  0  0  0  0
   -4.0528   -1.0687   -0.5498 H   0  0  0  0  0  0  0  0  0  0  0  0
   -2.6576   -1.5185    0.5492 H   0  0  0  0  0  0  0  0  0  0  0  0
   -4.6439    0.4459    0.9363 H   0  0  0  0  0  0  0  0  0  0  0  0
   -1.5192    1.2891    0.8474 H   0  0  0  0  0  0  0  0  0  0  0  0
    1.0439    1.9463    0.8239 H   0  0  0  0  0  0  0  0  0  0  0  0
    0.7503    0.5183    1.8180 H   0  0  0  0  0  0  0  0  0  0  0  0
    2.1075   -1.4415   -0.0656 H   0  0  0  0  0  0  0  0  0  0  0  0
    2.4302   -1.2699    1.7345 H   0  0  0  0  0  0  0  0  0  0  0  0
    4.4145   -2.1483    0.5721 H   0  0  0  0  0  0  0  0  0  0  0  0
    4.7154   -0.5086    1.2663 H   0  0  0  0  0  0  0  0  0  0  0  0
    4.6400    0.4598   -0.8171 H   0  0  0  0  0  0  0  0  0  0  0  0
    3.7698   -0.8574   -1.5247 H   0  0  0  0  0  0  0  0  0  0  0  0
  1  2  1  0
  2  3  1  0
  3  4  1  0
  2  5  1  0
  5  6  1  0
  6  7  2  0
  6  8  1  0
  8  9  1  0
  9 10  1  0
 10 11  1  0
 11 12  1  0
  1 13  1  0
  1 14  1  0
  1 15  1  0
  2 16  1  6
  3 17  1  0
  3 18  1  0
  4 19  1  0
  5 20  1  0
  8 21  1  0
  8 22  1  0
 10 23  1  0
 10 24  1  0
 11 25  1  0
 11 26  1  0
 12 27  1  0
 12 28  1  0
M  END
$$$$

     RDKit          3D

 28 27  0  0  0  0  0  0  0  0999 V2000
   -3.6016   -0.3447    0.9576 C   0  0  0  0  0  0  0  0  0  0  0  0
   -2.5144   -0.6340   -0.0655 C   0  0  2  0  0  0  0  0  0  0  0  0
   -2.8976   -1.8286   -0.8634 C   0  0  0  0  0  0  0  0  0  0  0  0
   -2.9072   -2.9551   -0.0080 O   0  0  0  0  0  0  0  0  0  0  0  0
   -1.2515   -0.6587    0.5638 N   0  0  0  0  0  0  0  0  0  0  0  0
   -0.1948    0.2851    0.3376 C   0  0  0  0  0  0  0  0  0  0  0  0
   -0.4507    1.1719   -0.4781 O   0  0  0  0  0  0  0  0  0  0  0  0
    1.0975    0.2175    1.0144 C   0  0  0  0  0  0  0  0  0  0  0  0
    2.0526    1.1104    0.6701 O   0  0  0  0  0  0  0  0  0  0  0  0
    2.4623    0.9659   -0.6329 C   0  0  0  0  0  0  0  0  0  0  0  0
    3.5401    1.9625   -1.0167 C   0  0  0  0  0  0  0  0  0  0  0  0
    4.6817    1.7585   -0.1519 N   0  0  0  0  0  0  0  0  0  0  0  0
   -4.5399   -0.0008    0.4409 H   0  0  0  0  0  0  0  0  0  0  0  0
   -3.7572   -1.2258    1.5870 H   0  0  0  0  0  0  0  0  0  0  0  0
   -3.2378    0.5102    1.5747 H   0  0  0  0  0  0  0  0  0  0  0  0
   -2.5337    0.2529   -0.7673 H   0  0  0  0  0  0  0  0  0  0  0  0
   -2.3252   -1.9961   -1.7724 H   0  0  0  0  0  0  0  0  0  0  0  0
   -3.9604   -1.7196   -1.1741 H   0  0  0  0  0  0  0  0  0  0  0  0
   -1.9965   -3.2826    0.1736 H   0  0  0  0  0  0  0  0  0  0  0  0
   -1.0343   -1.4084    1.2540 H   0  0  0  0  0  0  0  0  0  0  0  0
    1.5067   -0.8147    0.7639 H   0  0  0  0  0  0  0  0  0  0  0  0
    1.0027    0.1809    2.1291 H   0  0  0  0  0  0  0  0  0  0  0  0
    2.8421   -0.0771   -0.7631 H   0  0  0  0  0  0  0  0  0  0  0  0
    1.6038    1.0549   -1.3111 H   0  0  0  0  0  0  0  0  0  0  0  0
    3.8774    1.6865   -2.0528 H   0  0  0  0  0  0  0  0  0  0  0  0
    3.1407    2.9812   -0.9943 H   0  0  0  0  0  0  0  0  0  0  0  0
    4.9765    0.7725   -0.2345 H   0  0  0  0  0  0  0  0  0  0  0  0
    4.4186    2.0352    0.8193 H   0  0  0  0  0  0  0  0  0  0  0  0
  1  2  1  0
  2  3  1  0
  3  4  1  0
  2  5  1  0
  5  6  1  0
  6  7  2  0
  6  8  1  0
  8  9  1  0
  9 10  1  0
 10 11  1  0
 11 12  1  0
  1 13  1  0
  1 14  1  0
  1 15  1  0
  2 16  1  6
  3 17  1  0
  3 18  1  0
  4 19  1  0
  5 20  1  0
  8 21  1  0
  8 22  1  0
 10 23  1  0
 10 24  1  0
 11 25  1  0
 11 26  1  0
 12 27  1  0
 12 28  1  0
M  END
$$$$

     RDKit          3D

 28 27  0  0  0  0  0  0  0  0999 V2000
   -3.6615   -0.3372   -0.0139 C   0  0  0  0  0  0  0  0  0  0  0  0
   -2.6214    0.3110    0.8684 C   0  0  2  0  0  0  0  0  0  0  0  0
   -2.9760    1.7798    1.0306 C   0  0  0  0  0  0  0  0  0  0  0  0
   -3.0213    2.3766   -0.2259 O   0  0  0  0  0  0  0  0  0  0  0  0
   -1.3393    0.1713    0.2309 N   0  0  0  0  0  0  0  0  0  0  0  0
   -0.2908   -0.4883    0.8919 C   0  0  0  0  0  0  0  0  0  0  0  0
   -0.4331   -0.9683    2.0368 O   0  0  0  0  0  0  0  0  0  0  0  0
    1.0525   -0.6324    0.2192 C   0  0  0  0  0  0  0  0  0  0  0  0
    1.9191   -1.3021    1.0352 O   0  0  0  0  0  0  0  0  0  0  0  0
    3.1690   -1.5784    0.5863 C   0  0  0  0  0  0  0  0  0  0  0  0
    3.9942   -0.3974    0.2295 C   0  0  0  0  0  0  0  0  0  0  0  0
    3.4646    0.4167   -0.8085 N   0  0  0  0  0  0  0  0  0  0  0  0
   -3.2908   -0.3473   -1.0476 H   0  0  0  0  0  0  0  0  0  0  0  0
   -3.8327   -1.3599    0.3771 H   0  0  0  0  0  0  0  0  0  0  0  0
   -4.5983    0.2484    0.0717 H   0  0  0  0  0  0  0  0  0  0  0  0
   -2.6079   -0.1572    1.8736 H   0  0  0  0  0  0  0  0  0  0  0  0
   -2.2354    2.2801    1.6993 H   0  0  0  0  0  0  0  0  0  0  0  0
   -3.9770    1.9070    1.4795 H   0  0  0  0  0  0  0  0  0  0  0  0
   -3.0504    1.6745   -0.9125 H   0  0  0  0  0  0  0  0  0  0  0  0
   -1.1827    0.5581   -0.7222 H   0  0  0  0  0  0  0  0  0  0  0  0
    1.3809    0.4342    0.0776 H   0  0  0  0  0  0  0  0  0  0  0  0
    0.9132   -1.1153   -0.7619 H   0  0  0  0  0  0  0  0  0  0  0  0
    3.6815   -2.1622    1.4185 H   0  0  0  0  0  0  0  0  0  0  0  0
    3.1351   -2.3190   -0.2570 H   0  0  0  0  0  0  0  0  0  0  0  0
    5.0189   -0.7544   -0.0251 H   0  0  0  0  0  0  0  0  0  0  0  0
    4.1482    0.2709    1.1285 H   0  0  0  0  0  0  0  0  0  0  0  0
    3.5966    0.0552   -1.7734 H   0  0  0  0  0  0  0  0  0  0  0  0
    3.6447    1.4354   -0.7098 H   0  0  0  0  0  0  0  0  0  0  0  0
  1  2  1  0
  2  3  1  0
  3  4  1  0
  2  5  1  0
  5  6  1  0
  6  7  2  0
  6  8  1  0
  8  9  1  0
  9 10  1  0
 10 11  1  0
 11 12  1  0
  1 13  1  0
  1 14  1  0
  1 15  1  0
  2 16  1  1
  3 17  1  0
  3 18  1  0
  4 19  1  0
  5 20  1  0
  8 21  1  0
  8 22  1  0
 10 23  1  0
 10 24  1  0
 11 25  1  0
 11 26  1  0
 12 27  1  0
 12 28  1  0
M  END
$$$$
