
     RDKit          3D

 28 27  0  0  0  0  0  0  0  0999 V2000
   -4.5675    1.5394    0.3300 C   0  0  0  0  0  0  0  0  0  0  0  0
   -4.1351    0.2094   -0.0115 N   0  0  0  0  0  0  0  0  0  0  0  0
   -2.7673   -0.1423    0.1488 C   0  0  0  0  0  0  0  0  0  0  0  0
   -1.9830    0.7365    0.5884 O   0  0  0  0  0  0  0  0  0  0  0  0
   -2.2538   -1.4941   -0.1836 C   0  0  0  0  0  0  0  0  0  0  0  0
   -0.8268   -1.5458    0.0850 N   0  0  0  0  0  0  0  0  0  0  0  0
    0.1019   -0.6914   -0.5623 C   0  0  0  0  0  0  0  0  0  0  0  0
   -0.2834    0.1556   -1.4058 O   0  0  0  0  0  0  0  0  0  0  0  0
    1.5444   -0.8405   -0.2011 C   0  0  0  0  0  0  0  0  0  0  0  0
    2.2469    0.0850   -0.9492 O   0  0  0  0  0  0  0  0  0  0  0  0
    3.6075    0.0352   -0.7192 C   0  0  0  0  0  0  0  0  0  0  0  0
    3.9689    0.3176    0.7162 C   0  0  0  0  0  0  0  0  0  0  0  0
    3.4964    1.6415    1.0623 N   0  0  0  0  0  0  0  0  0  0  0  0
   -4.4730    2.2564   -0.5075 H   0  0  0  0  0  0  0  0  0  0  0  0
   -5.6371    1.4897    0.6012 H   0  0  0  0  0  0  0  0  0  0  0  0
   -3.9577    1.9148    1.1760 H   0  0  0  0  0  0  0  0  0  0  0  0
   -4.8017   -0.5288   -0.3823 H   0  0  0  0  0  0  0  0  0  0  0  0
   -2.7691   -2.2900    0.3589 H   0  0  0  0  0  0  0  0  0  0  0  0
   -2.4381   -1.6495   -1.2647 H   0  0  0  0  0  0  0  0  0  0  0  0
   -0.4624   -2.2326    0.7771 H   0  0  0  0  0  0  0  0  0  0  0  0
    1.6542   -0.6927    0.8932 H   0  0  0  0  0  0  0  0  0  0  0  0
    1.9317   -1.8383   -0.4398 H   0  0  0  0  0  0  0  0  0  0  0  0
    4.1484    0.7938   -1.3396 H   0  0  0  0  0  0  0  0  0  0  0  0
    3.9598   -0.9755   -1.0423 H   0  0  0  0  0  0  0  0  0  0  0  0
    3.5573   -0.4135    1.4068 H   0  0  0  0  0  0  0  0  0  0  0  0
    5.0857    0.2648    0.8126 H   0  0  0  0  0  0  0  0  0  0  0  0
    3.5389    2.2576    0.2090 H   0  0  0  0  0  0  0  0  0  0  0  0
    2.5140    1.6377    1.3934 H   0  0  0  0  0  0  0  0  0  0  0  0
  1  2  1  0
  2  3  1  0
  3  4  2  0
  3  5  1  0
  5  6  1  0
  6  7  1  0
  7  8  2  0
  7  9  1  0
  9 10  1  0
 10 11  1  0
 11 12  1  0
 12 13  1  0
  1 14  1  0
  1 15  1  0
  1 16  1  0
  2 17  1  0
  5 18  1  0
  5 19  1  0
  6 20  1  0
  9 21  1  0
  9 22  1  0
 11 23  1  0
 11 24  1  0
 12 25  1  0
 12 26  1  0
 13 27  1  0
 13 28  1  0
M  END
$$$$

     RDKit          3D

 28 27  0  0  0  0  0  0  0  0999 V2000
    5.4753   -0.3217    0.3791 C   0  0  0  0  0  0  0  0  0  0  0  0
    4.2383   -0.7659   -0.2048 N   0  0  0  0  0  0  0  0  0  0  0  0
    3.0214   -0.0144   -0.1514 C   0  0  0  0  0  0  0  0  0  0  0  0
    3.0764    1.0853    0.4451 O   0  0  0  0  0  0  0  0  0  0  0  0
    1.7666   -0.5152   -0.7701 C   0  0  0  0  0  0  0  0  0  0  0  0
    0.7337    0.4866   -0.5326 N   0  0  0  0  0  0  0  0  0  0  0  0
   -0.6052    0.2964   -1.0110 C   0  0  0  0  0  0  0  0  0  0  0  0
   -0.8555   -0.7502   -1.6344 O   0  0  0  0  0  0  0  0  0  0  0  0
   -1.5942    1.3544   -0.7314 C   0  0  0  0  0  0  0  0  0  0  0  0
   -2.8551    1.0857   -1.1709 O   0  0  0  0  0  0  0  0  0  0  0  0
   -3.4706    0.0065   -0.6312 C   0  0  0  0  0  0  0  0  0  0  0  0
   -3.6129    0.1266    0.8924 C   0  0  0  0  0  0  0  0  0  0  0  0
   -4.2935   -1.0877    1.3765 N   0  0  0  0  0  0  0  0  0  0  0  0
    5.9970    0.2830   -0.4195 H   0  0  0  0  0  0  0  0  0  0  0  0
    6.1041   -1.1477    0.7502 H   0  0  0  0  0  0  0  0  0  0  0  0
    5.3317    0.3870    1.2202 H   0  0  0  0  0  0  0  0  0  0  0  0
    4.1890   -1.6798   -0.7015 H   0  0  0  0  0  0  0  0  0  0  0  0
    1.4283   -1.4395   -0.2300 H   0  0  0  0  0  0  0  0  0  0  0  0
    1.9114   -0.6976   -1.8511 H   0  0  0  0  0  0  0  0  0  0  0  0
    0.9296    1.3670   -0.0124 H   0  0  0  0  0  0  0  0  0  0  0  0
   -1.6062    1.5570    0.3735 H   0  0  0  0  0  0  0  0  0  0  0  0
   -1.1963    2.3083   -1.1882 H   0  0  0  0  0  0  0  0  0  0  0  0
   -2.9712   -0.9227   -0.8832 H   0  0  0  0  0  0  0  0  0  0  0  0
   -4.5212   -0.0066   -1.0398 H   0  0  0  0  0  0  0  0  0  0  0  0
   -2.6258    0.1518    1.3800 H   0  0  0  0  0  0  0  0  0  0  0  0
   -4.1529    1.0424    1.1609 H   0  0  0  0  0  0  0  0  0  0  0  0
   -4.9436   -0.7795    2.1581 H   0  0  0  0  0  0  0  0  0  0  0  0
   -4.8990   -1.4096    0.5786 H   0  0  0  0  0  0  0  0  0  0  0  0
  1  2  1  0
  2  3  1  0
  3  4  2  0
  3  5  1  0
  5  6  1  0
  6  7  1  0
  7  8  2  0
  7  9  1  0
  9 10  1  0
 10 11  1  0
 11 12  1  0
 12 13  1  0
  1 14  1  0
  1 15  1  0
  1 16  1  0
  2 17  1  0
  5 18  1  0
  5 19  1  0
  6 20  1  0
  9 21  1  0
  9 22  1  0
 11 23  1  0
 11 24  1  0
 12 25  1  0
 12 26  1  0
 13 27  1  0
 13 28  1  0
M  END
$$$$

     RDKit          3D

 28 27  0  0  0  0  0  0  0  0999 V2000
    5.0774   -0.4965   -0.3417 C   0  0  0  0  0  0  0  0  0  0  0  0
    3.8464   -1.0488    0.1844 N   0  0  0  0  0  0  0  0  0  0  0  0
    2.6484   -0.2945    0.2043 C   0  0  0  0  0  0  0  0  0  0  0  0
    2.6582    0.8747   -0.2436 O   0  0  0  0  0  0  0  0  0  0  0  0
    1.4376   -0.9227    0.7542 C   0  0  0  0  0  0  0  0  0  0  0  0
    0.3501    0.0569    0.6560 N   0  0  0  0  0  0  0  0  0  0  0  0
   -0.0822    0.5891   -0.5595 C   0  0  0  0  0  0  0  0  0  0  0  0
    0.5221    0.1964   -1.6047 O   0  0  0  0  0  0  0  0  0  0  0  0
   -1.1897    1.5719   -0.6356 C   0  0  0  0  0  0  0  0  0  0  0  0
   -1.9641    1.6783    0.4830 O   0  0  0  0  0  0  0  0  0  0  0  0
   -2.6746    0.5450    0.7512 C   0  0  0  0  0  0  0  0  0  0  0  0
   -3.6583    0.2947   -0.3945 C   0  0  0  0  0  0  0  0  0  0  0  0
   -4.4401   -0.9262   -0.0964 N   0  0  0  0  0  0  0  0  0  0  0  0
    5.1046   -0.7571   -1.4352 H   0  0  0  0  0  0  0  0  0  0  0  0
    5.9246   -1.0256    0.1531 H   0  0  0  0  0  0  0  0  0  0  0  0
    5.1188    0.6038   -0.1800 H   0  0  0  0  0  0  0  0  0  0  0  0
    3.8438   -2.0311    0.5593 H   0  0  0  0  0  0  0  0  0  0  0  0
    1.1242   -1.8364    0.2071 H   0  0  0  0  0  0  0  0  0  0  0  0
    1.6378   -1.1552    1.8185 H   0  0  0  0  0  0  0  0  0  0  0  0
   -0.0868    0.3740    1.5444 H   0  0  0  0  0  0  0  0  0  0  0  0
   -1.7951    1.4649   -1.5634 H   0  0  0  0  0  0  0  0  0  0  0  0
   -0.7198    2.6066   -0.7659 H   0  0  0  0  0  0  0  0  0  0  0  0
   -3.2229    0.6059    1.7198 H   0  0  0  0  0  0  0  0  0  0  0  0
   -2.0565   -0.3959    0.8160 H   0  0  0  0  0  0  0  0  0  0  0  0
   -4.3456    1.1446   -0.5476 H   0  0  0  0  0  0  0  0  0  0  0  0
   -3.0979    0.0947   -1.3154 H   0  0  0  0  0  0  0  0  0  0  0  0
   -4.6975   -0.9385    0.9071 H   0  0  0  0  0  0  0  0  0  0  0  0
   -5.2629   -0.8731   -0.7426 H   0  0  0  0  0  0  0  0  0  0  0  0
  1  2  1  0
  2  3  1  0
  3  4  2  0
  3  5  1  0
  5  6  1  0
  6  7  1  0
  7  8  2  0
  7  9  1  0
  9 10  1  0
 10 11  1  0
 11 12  1  0
 12 13  1  0
  1 14  1  0
  1 15  1  0
  1 16  1  0
  2 17  1  0
  5 18  1  0
  5 19  1  0
  6 20  1  0
  9 21  1  0
  9 22  1  0
 11 23  1  0
 11 24  1  0
 12 25  1  0
 12 26  1  0
 13 27  1  0
 13 28  1  0
M  END
$$$$

     RDKit          3D

 28 27  0  0  0  0  0  0  0  0999 V2000
    5.3117   -1.1099   -0.3048 C   0  0  0  0  0  0  0  0  0  0  0  0
    4.4559   -0.3016    0.5285 N   0  0  0  0  0  0  0  0  0  0  0  0
    3.0835   -0.1744    0.2088 C   0  0  0  0  0  0  0  0  0  0  0  0
    2.6497   -0.7750   -0.7998 O   0  0  0  0  0  0  0  0  0  0  0  0
    2.1818    0.6319    1.0225 C   0  0  0  0  0  0  0  0  0  0  0  0
    0.8183    0.6367    0.5328 N   0  0  0  0  0  0  0  0  0  0  0  0
    0.0424   -0.5439    0.4067 C   0  0  0  0  0  0  0  0  0  0  0  0
    0.5203   -1.6614    0.7223 O   0  0  0  0  0  0  0  0  0  0  0  0
   -1.3756   -0.5447   -0.1018 C   0  0  0  0  0  0  0  0  0  0  0  0
   -1.7995    0.7152   -0.4164 O   0  0  0  0  0  0  0  0  0  0  0  0
   -3.0678    0.7756   -0.9040 C   0  0  0  0  0  0  0  0  0  0  0  0
   -4.1277    0.2747    0.0148 C   0  0  0  0  0  0  0  0  0  0  0  0
   -5.4579    0.3761   -0.5709 N   0  0  0  0  0  0  0  0  0  0  0  0
    5.7767   -1.9240    0.2912 H   0  0  0  0  0  0  0  0  0  0  0  0
    4.7521   -1.5357   -1.1517 H   0  0  0  0  0  0  0  0  0  0  0  0
    6.0975   -0.4482   -0.7598 H   0  0  0  0  0  0  0  0  0  0  0  0
    4.8687    0.1765    1.3560 H   0  0  0  0  0  0  0  0  0  0  0  0
    2.5185    1.7015    1.0584 H   0  0  0  0  0  0  0  0  0  0  0  0
    2.2304    0.2949    2.0967 H   0  0  0  0  0  0  0  0  0  0  0  0
    0.3261    1.5333    0.2406 H   0  0  0  0  0  0  0  0  0  0  0  0
   -1.4733   -1.1971   -0.9936 H   0  0  0  0  0  0  0  0  0  0  0  0
   -2.0529   -0.9662    0.6787 H   0  0  0  0  0  0  0  0  0  0  0  0
   -3.3311    1.7886   -1.2829 H   0  0  0  0  0  0  0  0  0  0  0  0
   -3.0897    0.1165   -1.8219 H   0  0  0  0  0  0  0  0  0  0  0  0
   -4.1646    0.8063    0.9850 H   0  0  0  0  0  0  0  0  0  0  0  0
   -3.9657   -0.8343    0.1624 H   0  0  0  0  0  0  0  0  0  0  0  0
   -6.1414    0.1827    0.1899 H   0  0  0  0  0  0  0  0  0  0  0  0
   -5.5862   -0.2330   -1.3877 H   0  0  0  0  0  0  0  0  0  0  0  0
  1  2  1  0
  2  3  1  0
  3  4  2  0
  3  5  1  0
  5  6  1  0
  6  7  1  0
  7  8  2  0
  7  9  1  0
  9 10  1  0
 10 11  1  0
 11 12  1  0
 12 13  1  0
  1 14  1  0
  1 15  1  0
  1 16  1  0
  2 17  1  0
  5 18  1  0
  5 19  1  0
  6 20  1  0
  9 21  1  0
  9 22  1  0
 11 23  1  0
 11 24  1  0
 12 25  1  0
 12 26  1  0
 13 27  1  0
 13 28  1  0
M  END
$$$$

     RDKit          3D

 28 27  0  0  0  0  0  0  0  0999 V2000
    4.3651    1.4351    0.1346 C   0  0  0  0  0  0  0  0  0  0  0  0
    3.1996    0.5357    0.0623 N   0  0  0  0  0  0  0  0  0  0  0  0
    3.3293   -0.8218   -0.2592 C   0  0  0  0  0  0  0  0  0  0  0  0
    4.5187   -1.2327   -0.4790 O   0  0  0  0  0  0  0  0  0  0  0  0
    2.1801   -1.7531   -0.3450 C   0  0  0  0  0  0  0  0  0  0  0  0
    0.9050   -1.1716   -0.1234 N   0  0  0  0  0  0  0  0  0  0  0  0
    0.3070   -0.1671   -0.9176 C   0  0  0  0  0  0  0  0  0  0  0  0
    0.9204    0.2649   -1.9126 O   0  0  0  0  0  0  0  0  0  0  0  0
   -1.0360    0.3530   -0.5531 C   0  0  0  0  0  0  0  0  0  0  0  0
   -1.4983   -0.2744    0.5704 O   0  0  0  0  0  0  0  0  0  0  0  0
   -2.7301    0.1180    1.0136 C   0  0  0  0  0  0  0  0  0  0  0  0
   -3.8368   -0.1051   -0.0068 C   0  0  0  0  0  0  0  0  0  0  0  0
   -5.1123    0.3157    0.4893 N   0  0  0  0  0  0  0  0  0  0  0  0
    4.8104    1.4081    1.1578 H   0  0  0  0  0  0  0  0  0  0  0  0
    4.0438    2.4597   -0.1418 H   0  0  0  0  0  0  0  0  0  0  0  0
    5.1266    1.1368   -0.6331 H   0  0  0  0  0  0  0  0  0  0  0  0
    2.2769    0.9641    0.2756 H   0  0  0  0  0  0  0  0  0  0  0  0
    2.2281   -2.3623   -1.2879 H   0  0  0  0  0  0  0  0  0  0  0  0
    2.3555   -2.5298    0.4573 H   0  0  0  0  0  0  0  0  0  0  0  0
    0.3339   -1.5028    0.7022 H   0  0  0  0  0  0  0  0  0  0  0  0
   -1.7033    0.1121   -1.4206 H   0  0  0  0  0  0  0  0  0  0  0  0
   -1.0198    1.4558   -0.4897 H   0  0  0  0  0  0  0  0  0  0  0  0
   -2.9880   -0.5000    1.8991 H   0  0  0  0  0  0  0  0  0  0  0  0
   -2.7690    1.1731    1.3593 H   0  0  0  0  0  0  0  0  0  0  0  0
   -3.9001   -1.1813   -0.2678 H   0  0  0  0  0  0  0  0  0  0  0  0
   -3.6546    0.4457   -0.9520 H   0  0  0  0  0  0  0  0  0  0  0  0
   -5.3989    1.2595    0.1598 H   0  0  0  0  0  0  0  0  0  0  0  0
   -5.2531    0.1648    1.5084 H   0  0  0  0  0  0  0  0  0  0  0  0
  1  2  1  0
  2  3  1  0
  3  4  2  0
  3  5  1  0
  5  6  1  0
  6  7  1  0
  7  8  2  0
  7  9  1  0
  9 10  1  0
 10 11  1  0
 11 12  1  0
 12 13  1  0
  1 14  1  0
  1 15  1  0
  1 16  1  0
  2 17  1  0
  5 18  1  0
  5 19  1  0
  6 20  1  0
  9 21  1  0
  9 22  1  0
 11 23  1  0
 11 24  1  0
 12 25  1  0
 12 26  1  0
 13 27  1  0
 13 28  1  0
M  END
$$$$

     RDKit          3D

 28 27  0  0  0  0  0  0  0  0999 V2000
   -3.6120   -1.7593   -0.2492 C   0  0  0  0  0  0  0  0  0  0  0  0
   -2.7036   -0.7249    0.2765 N   0  0  0  0  0  0  0  0  0  0  0  0
   -3.2326    0.4841    0.7315 C   0  0  0  0  0  0  0  0  0  0  0  0
   -4.5021    0.6089    0.6666 O   0  0  0  0  0  0  0  0  0  0  0  0
   -2.4361    1.5904    1.2702 C   0  0  0  0  0  0  0  0  0  0  0  0
   -1.0360    1.2673    1.1918 N   0  0  0  0  0  0  0  0  0  0  0  0
   -0.4285    1.0782   -0.0956 C   0  0  0  0  0  0  0  0  0  0  0  0
   -1.1107    1.2041   -1.1179 O   0  0  0  0  0  0  0  0  0  0  0  0
    1.0358    0.7318   -0.0766 C   0  0  0  0  0  0  0  0  0  0  0  0
    1.5305    0.5699   -1.3493 O   0  0  0  0  0  0  0  0  0  0  0  0
    2.8781    0.2873   -1.3076 C   0  0  0  0  0  0  0  0  0  0  0  0
    3.1402   -0.9697   -0.5524 C   0  0  0  0  0  0  0  0  0  0  0  0
    4.6034   -1.1869   -0.5737 N   0  0  0  0  0  0  0  0  0  0  0  0
   -3.0669   -2.4084   -0.9553 H   0  0  0  0  0  0  0  0  0  0  0  0
   -4.0193   -2.3840    0.5683 H   0  0  0  0  0  0  0  0  0  0  0  0
   -4.4358   -1.1928   -0.7712 H   0  0  0  0  0  0  0  0  0  0  0  0
   -1.7028   -0.9640    0.2938 H   0  0  0  0  0  0  0  0  0  0  0  0
   -2.6689    2.5590    0.7728 H   0  0  0  0  0  0  0  0  0  0  0  0
   -2.6976    1.6595    2.3639 H   0  0  0  0  0  0  0  0  0  0  0  0
   -0.4707    1.1726    2.0716 H   0  0  0  0  0  0  0  0  0  0  0  0
    1.0644   -0.2463    0.4595 H   0  0  0  0  0  0  0  0  0  0  0  0
    1.6353    1.5184    0.4247 H   0  0  0  0  0  0  0  0  0  0  0  0
    3.3577    1.1344   -0.7353 H   0  0  0  0  0  0  0  0  0  0  0  0
    3.3334    0.1974   -2.3177 H   0  0  0  0  0  0  0  0  0  0  0  0
    2.9243   -0.8903    0.5502 H   0  0  0  0  0  0  0  0  0  0  0  0
    2.6119   -1.8442   -0.9702 H   0  0  0  0  0  0  0  0  0  0  0  0
    5.0293   -0.5534    0.1220 H   0  0  0  0  0  0  0  0  0  0  0  0
    4.9792   -0.9393   -1.5171 H   0  0  0  0  0  0  0  0  0  0  0  0
  1  2  1  0
  2  3  1  0
  3  4  2  0
  3  5  1  0
  5  6  1  0
  6  7  1  0
  7  8  2  0
  7  9  1  0
  9 10  1  0
 10 11  1  0
 11 12  1  0
 12 13  1  0
  1 14  1  0
  1 15  1  0
  1 16  1  0
  2 17  1  0
  5 18  1  0
  5 19  1  0
  6 20  1  0
  9 21  1  0
  9 22  1  0
 11 23  1  0
 11 24  1  0
 12 25  1  0
 12 26  1  0
 13 27  1  0
 13 28  1  0
M  END
$$$$

     RDKit          3D

 28 27  0  0  0  0  0  0  0  0999 V2000
   -4.6182    1.7011    0.1590 C   0  0  0  0  0  0  0  0  0  0  0  0
   -4.1755    0.3281    0.0779 N   0  0  0  0  0  0  0  0  0  0  0  0
   -2.8191    0.0304   -0.2029 C   0  0  0  0  0  0  0  0  0  0  0  0
   -2.0105    0.9848   -0.3796 O   0  0  0  0  0  0  0  0  0  0  0  0
   -2.3624   -1.3801   -0.2866 C   0  0  0  0  0  0  0  0  0  0  0  0
   -0.9441   -1.4218   -0.5825 N   0  0  0  0  0  0  0  0  0  0  0  0
    0.0017   -0.8178    0.3059 C   0  0  0  0  0  0  0  0  0  0  0  0
   -0.4265   -0.2618    1.3292 O   0  0  0  0  0  0  0  0  0  0  0  0
    1.4359   -0.9057   -0.0720 C   0  0  0  0  0  0  0  0  0  0  0  0
    2.2562   -0.2968    0.8447 O   0  0  0  0  0  0  0  0  0  0  0  0
    3.6004   -0.3700    0.5285 C   0  0  0  0  0  0  0  0  0  0  0  0
    3.9661    0.2745   -0.7818 C   0  0  0  0  0  0  0  0  0  0  0  0
    3.6033    1.6760   -0.7163 N   0  0  0  0  0  0  0  0  0  0  0  0
   -5.0999    1.9280    1.1373 H   0  0  0  0  0  0  0  0  0  0  0  0
   -3.7551    2.3899    0.0175 H   0  0  0  0  0  0  0  0  0  0  0  0
   -5.3364    1.8613   -0.6754 H   0  0  0  0  0  0  0  0  0  0  0  0
   -4.8617   -0.4303    0.2274 H   0  0  0  0  0  0  0  0  0  0  0  0
   -2.6266   -1.9649    0.6164 H   0  0  0  0  0  0  0  0  0  0  0  0
   -2.9125   -1.8390   -1.1334 H   0  0  0  0  0  0  0  0  0  0  0  0
   -0.5934   -1.9002   -1.4601 H   0  0  0  0  0  0  0  0  0  0  0  0
    1.6077   -0.4420   -1.0876 H   0  0  0  0  0  0  0  0  0  0  0  0
    1.7598   -1.9618   -0.1761 H   0  0  0  0  0  0  0  0  0  0  0  0
    4.2183   -0.0147    1.3632 H   0  0  0  0  0  0  0  0  0  0  0  0
    3.8395   -1.4652    0.4287 H   0  0  0  0  0  0  0  0  0  0  0  0
    5.0783    0.2076   -0.9367 H   0  0  0  0  0  0  0  0  0  0  0  0
    3.5217   -0.2142   -1.6639 H   0  0  0  0  0  0  0  0  0  0  0  0
    3.4038    2.0658   -1.6688 H   0  0  0  0  0  0  0  0  0  0  0  0
    4.2488    2.2386   -0.1511 H   0  0  0  0  0  0  0  0  0  0  0  0
  1  2  1  0
  2  3  1  0
  3  4  2  0
  3  5  1  0
  5  6  1  0
  6  7  1  0
  7  8  2  0
  7  9  1  0
  9 10  1  0
 10 11  1  0
 11 12  1  0
 12 13  1  0
  1 14  1  0
  1 15  1  0
  1 16  1  0
  2 17  1  0
  5 18  1  0
  5 19  1  0
  6 20  1  0
  9 21  1  0
  9 22  1  0
 11 23  1  0
 11 24  1  0
 12 25  1  0
 12 26  1  0
 13 27  1  0
 13 28  1  0
M  END
$$$$

     RDKit          3D

 28 27  0  0  0  0  0  0  0  0999 V2000
   -4.5014   -0.4415    1.4288 C   0  0  0  0  0  0  0  0  0  0  0  0
   -3.7184   -0.9370    0.3080 N   0  0  0  0  0  0  0  0  0  0  0  0
   -2.3739   -0.5159    0.1154 C   0  0  0  0  0  0  0  0  0  0  0  0
   -1.9106    0.2959    0.9568 O   0  0  0  0  0  0  0  0  0  0  0  0
   -1.6278   -1.0464   -1.0320 C   0  0  0  0  0  0  0  0  0  0  0  0
   -0.2656   -0.4815   -1.0388 N   0  0  0  0  0  0  0  0  0  0  0  0
   -0.0810    0.9252   -1.1306 C   0  0  0  0  0  0  0  0  0  0  0  0
   -1.1699    1.5936   -1.2134 O   0  0  0  0  0  0  0  0  0  0  0  0
    1.2054    1.6247   -1.1411 C   0  0  0  0  0  0  0  0  0  0  0  0
    2.2709    0.8463   -0.8086 O   0  0  0  0  0  0  0  0  0  0  0  0
    2.2660    0.4103    0.5103 C   0  0  0  0  0  0  0  0  0  0  0  0
    3.4810   -0.4813    0.7323 C   0  0  0  0  0  0  0  0  0  0  0  0
    4.6628    0.3083    0.4577 N   0  0  0  0  0  0  0  0  0  0  0  0
   -5.3546    0.1465    1.0413 H   0  0  0  0  0  0  0  0  0  0  0  0
   -3.8459    0.1470    2.1095 H   0  0  0  0  0  0  0  0  0  0  0  0
   -4.9190   -1.3486    1.9318 H   0  0  0  0  0  0  0  0  0  0  0  0
   -4.1674   -1.6084   -0.3503 H   0  0  0  0  0  0  0  0  0  0  0  0
   -2.0630   -0.7439   -2.0187 H   0  0  0  0  0  0  0  0  0  0  0  0
   -1.5664   -2.1533   -1.0114 H   0  0  0  0  0  0  0  0  0  0  0  0
    0.5619   -1.1050   -0.9966 H   0  0  0  0  0  0  0  0  0  0  0  0
    1.1423    2.4323   -0.3538 H   0  0  0  0  0  0  0  0  0  0  0  0
    1.3961    2.1158   -2.1207 H   0  0  0  0  0  0  0  0  0  0  0  0
    1.3292   -0.0420    0.8556 H   0  0  0  0  0  0  0  0  0  0  0  0
    2.4401    1.3431    1.1197 H   0  0  0  0  0  0  0  0  0  0  0  0
    3.5054   -0.8122    1.7834 H   0  0  0  0  0  0  0  0  0  0  0  0
    3.4174   -1.3516    0.0748 H   0  0  0  0  0  0  0  0  0  0  0  0
    4.4335    1.1247   -0.1395 H   0  0  0  0  0  0  0  0  0  0  0  0
    5.4531   -0.2451    0.0972 H   0  0  0  0  0  0  0  0  0  0  0  0
  1  2  1  0
  2  3  1  0
  3  4  2  0
  3  5  1  0
  5  6  1  0
  6  7  1  0
  7  8  2  0
  7  9  1  0
  9 10  1  0
 10 11  1  0
 11 12  1  0
 12 13  1  0
  1 14  1  0
  1 15  1  0
  1 16  1  0
  2 17  1  0
  5 18  1  0
  5 19  1  0
  6 20  1  0
  9 21  1  0
  9 22  1  0
 11 23  1  0
 11 24  1  0
 12 25  1  0
 12 26  1  0
 13 27  1  0
 13 28  1  0
M  END
$$$$
