
     RDKit          3D

 25 24  0  0  0  0  0  0  0  0999 V2000
    2.7888    0.7740    1.8608 C   0  0  0  0  0  0  0  0  0  0  0  0
    1.8167    0.0410    1.1849 O   0  0  0  0  0  0  0  0  0  0  0  0
    2.2168   -0.1978   -0.1285 C   0  0  0  0  0  0  0  0  0  0  0  0
    1.1868   -0.9917   -0.8950 C   0  0  1  0  0  0  0  0  0  0  0  0
    0.9234   -2.2705   -0.3169 N   0  0  0  0  0  0  0  0  0  0  0  0
   -0.0647   -0.1970   -1.0248 C   0  0  0  0  0  0  0  0  0  0  0  0
   -0.0341    0.9609   -1.5146 O   0  0  0  0  0  0  0  0  0  0  0  0
   -1.3375   -0.6883   -0.6127 N   0  0  0  0  0  0  0  0  0  0  0  0
   -2.5525    0.0614   -0.7297 C   0  0  0  0  0  0  0  0  0  0  0  0
   -2.5275    1.3589    0.0384 C   0  0  0  0  0  0  0  0  0  0  0  0
   -3.7752    1.9740   -0.1721 O   0  0  0  0  0  0  0  0  0  0  0  0
    2.9476    1.7378    1.3583 H   0  0  0  0  0  0  0  0  0  0  0  0
    3.7719    0.2218    1.8355 H   0  0  0  0  0  0  0  0  0  0  0  0
    2.5563    0.9302    2.9129 H   0  0  0  0  0  0  0  0  0  0  0  0
    2.3731    0.7963   -0.5934 H   0  0  0  0  0  0  0  0  0  0  0  0
    3.1927   -0.7230   -0.1522 H   0  0  0  0  0  0  0  0  0  0  0  0
    1.6151   -1.1653   -1.9123 H   0  0  0  0  0  0  0  0  0  0  0  0
    0.4354   -2.2670    0.5826 H   0  0  0  0  0  0  0  0  0  0  0  0
    0.5974   -2.9466   -1.0161 H   0  0  0  0  0  0  0  0  0  0  0  0
   -1.3425   -1.6511   -0.2088 H   0  0  0  0  0  0  0  0  0  0  0  0
   -2.7909    0.3299   -1.7935 H   0  0  0  0  0  0  0  0  0  0  0  0
   -3.4004   -0.5493   -0.3795 H   0  0  0  0  0  0  0  0  0  0  0  0
   -2.3705    1.1507    1.1132 H   0  0  0  0  0  0  0  0  0  0  0  0
   -1.7733    2.0442   -0.3782 H   0  0  0  0  0  0  0  0  0  0  0  0
   -4.4532    1.2665   -0.2183 H   0  0  0  0  0  0  0  0  0  0  0  0
  1  2  1  0
  2  3  1  0
  3  4  1  0
  4  5  1  0
  4  6  1  0
  6  7  2  0
  6  8  1  0
  8  9  1  0
  9 10  1  0
 10 11  1  0
  1 12  1  0
  1 13  1  0
  1 14  1  0
  3 15  1  0
  3 16  1  0
  4 17  1  6
  5 18  1  0
  5 19  1  0
  8 20  1  0
  9 21  1  0
  9 22  1  0
 10 23  1  0
 10 24  1  0
 11 25  1  0
M  END
$$$$

     RDKit          3D

 25 24  0  0  0  0  0  0  0  0999 V2000
   -3.4472   -1.1787    0.3876 C   0  0  0  0  0  0  0  0  0  0  0  0
   -2.2690   -0.4751    0.5531 O   0  0  0  0  0  0  0  0  0  0  0  0
   -2.2512    0.5633   -0.3681 C   0  0  0  0  0  0  0  0  0  0  0  0
   -0.9805    1.3659   -0.2291 C   0  0  1  0  0  0  0  0  0  0  0  0
   -0.8109    1.9528    1.0553 N   0  0  0  0  0  0  0  0  0  0  0  0
    0.1447    0.4738   -0.6120 C   0  0  0  0  0  0  0  0  0  0  0  0
    0.0802   -0.0891   -1.7326 O   0  0  0  0  0  0  0  0  0  0  0  0
    1.2697    0.2255    0.2025 N   0  0  0  0  0  0  0  0  0  0  0  0
    2.3559   -0.6679   -0.2273 C   0  0  0  0  0  0  0  0  0  0  0  0
    3.4126   -0.7442    0.8297 C   0  0  0  0  0  0  0  0  0  0  0  0
    4.4144   -1.6009    0.3725 O   0  0  0  0  0  0  0  0  0  0  0  0
   -4.3402   -0.5582    0.5455 H   0  0  0  0  0  0  0  0  0  0  0  0
   -3.4877   -1.5935   -0.6490 H   0  0  0  0  0  0  0  0  0  0  0  0
   -3.4465   -1.9991    1.1452 H   0  0  0  0  0  0  0  0  0  0  0  0
   -3.1287    1.2308   -0.2768 H   0  0  0  0  0  0  0  0  0  0  0  0
   -2.2803    0.1279   -1.3874 H   0  0  0  0  0  0  0  0  0  0  0  0
   -1.0311    2.1746   -0.9951 H   0  0  0  0  0  0  0  0  0  0  0  0
   -0.5543    1.3125    1.8089 H   0  0  0  0  0  0  0  0  0  0  0  0
   -1.5894    2.5902    1.2510 H   0  0  0  0  0  0  0  0  0  0  0  0
    1.3117    0.6966    1.1267 H   0  0  0  0  0  0  0  0  0  0  0  0
    2.7621   -0.1965   -1.1577 H   0  0  0  0  0  0  0  0  0  0  0  0
    1.9539   -1.6427   -0.4965 H   0  0  0  0  0  0  0  0  0  0  0  0
    3.8224    0.2635    1.0281 H   0  0  0  0  0  0  0  0  0  0  0  0
    2.9239   -1.1683    1.7544 H   0  0  0  0  0  0  0  0  0  0  0  0
    5.1657   -1.0634    0.0257 H   0  0  0  0  0  0  0  0  0  0  0  0
  1  2  1  0
  2  3  1  0
  3  4  1  0
  4  5  1  0
  4  6  1  0
  6  7  2  0
  6  8  1  0
  8  9  1  0
  9 10  1  0
 10 11  1  0
  1 12  1  0
  1 13  1  0
  1 14  1  0
  3 15  1  0
  3 16  1  0
  4 17  1  6
  5 18  1  0
  5 19  1  0
  8 20  1  0
  9 21  1  0
  9 22  1  0
 10 23  1  0
 10 24  1  0
 11 25  1  0
M  END
$$$$

     RDKit          3D

 25 24  0  0  0  0  0  0  0  0999 V2000
   -3.8711   -0.0133   -0.8598 C   0  0  0  0  0  0  0  0  0  0  0  0
   -3.4526    0.8537    0.1076 O   0  0  0  0  0  0  0  0  0  0  0  0
   -2.1219    1.1126    0.1986 C   0  0  0  0  0  0  0  0  0  0  0  0
   -1.2239   -0.0438    0.4711 C   0  0  1  0  0  0  0  0  0  0  0  0
   -1.3276   -1.0125   -0.5695 N   0  0  0  0  0  0  0  0  0  0  0  0
    0.1689    0.3905    0.7276 C   0  0  0  0  0  0  0  0  0  0  0  0
    0.4306    1.2411    1.6146 O   0  0  0  0  0  0  0  0  0  0  0  0
    1.2578   -0.1393   -0.0199 N   0  0  0  0  0  0  0  0  0  0  0  0
    2.6403    0.2715    0.2125 C   0  0  0  0  0  0  0  0  0  0  0  0
    3.5190   -0.4867   -0.7512 C   0  0  0  0  0  0  0  0  0  0  0  0
    4.8475   -0.0990   -0.5356 O   0  0  0  0  0  0  0  0  0  0  0  0
   -3.6120    0.2949   -1.8942 H   0  0  0  0  0  0  0  0  0  0  0  0
   -5.0078    0.0523   -0.8518 H   0  0  0  0  0  0  0  0  0  0  0  0
   -3.6616   -1.0705   -0.7146 H   0  0  0  0  0  0  0  0  0  0  0  0
   -1.7481    1.7179   -0.6826 H   0  0  0  0  0  0  0  0  0  0  0  0
   -1.9920    1.8322    1.0628 H   0  0  0  0  0  0  0  0  0  0  0  0
   -1.5760   -0.5001    1.4431 H   0  0  0  0  0  0  0  0  0  0  0  0
   -1.1514   -0.5605   -1.4962 H   0  0  0  0  0  0  0  0  0  0  0  0
   -0.7456   -1.8512   -0.4074 H   0  0  0  0  0  0  0  0  0  0  0  0
    1.0127   -0.8512   -0.7582 H   0  0  0  0  0  0  0  0  0  0  0  0
    2.7883    1.3483    0.1040 H   0  0  0  0  0  0  0  0  0  0  0  0
    2.9725   -0.0274    1.2472 H   0  0  0  0  0  0  0  0  0  0  0  0
    3.2496   -0.1888   -1.7862 H   0  0  0  0  0  0  0  0  0  0  0  0
    3.4162   -1.5771   -0.5789 H   0  0  0  0  0  0  0  0  0  0  0  0
    5.1881   -0.6936    0.1828 H   0  0  0  0  0  0  0  0  0  0  0  0
  1  2  1  0
  2  3  1  0
  3  4  1  0
  4  5  1  0
  4  6  1  0
  6  7  2  0
  6  8  1  0
  8  9  1  0
  9 10  1  0
 10 11  1  0
  1 12  1  0
  1 13  1  0
  1 14  1  0
  3 15  1  0
  3 16  1  0
  4 17  1  1
  5 18  1  0
  5 19  1  0
  8 20  1  0
  9 21  1  0
  9 22  1  0
 10 23  1  0
 10 24  1  0
 11 25  1  0
M  END
$$$$

     RDKit          3D

 25 24  0  0  0  0  0  0  0  0999 V2000
    3.7998    0.8386   -0.1415 C   0  0  0  0  0  0  0  0  0  0  0  0
    2.9716    0.6878    0.9276 O   0  0  0  0  0  0  0  0  0  0  0  0
    1.6354    0.7223    0.6946 C   0  0  0  0  0  0  0  0  0  0  0  0
    1.0873   -0.3064   -0.2287 C   0  0  1  0  0  0  0  0  0  0  0  0
    1.2864   -1.6522    0.1801 N   0  0  0  0  0  0  0  0  0  0  0  0
   -0.3836   -0.0063   -0.3857 C   0  0  0  0  0  0  0  0  0  0  0  0
   -0.6983    1.1459   -0.7425 O   0  0  0  0  0  0  0  0  0  0  0  0
   -1.3754   -0.9652   -0.1467 N   0  0  0  0  0  0  0  0  0  0  0  0
   -2.7884   -0.7833   -0.2610 C   0  0  0  0  0  0  0  0  0  0  0  0
   -3.3970    0.2412    0.6379 C   0  0  0  0  0  0  0  0  0  0  0  0
   -2.9235    1.5141    0.4773 O   0  0  0  0  0  0  0  0  0  0  0  0
    3.6921    1.7908   -0.6925 H   0  0  0  0  0  0  0  0  0  0  0  0
    3.6901   -0.0566   -0.8080 H   0  0  0  0  0  0  0  0  0  0  0  0
    4.8489    0.8091    0.2226 H   0  0  0  0  0  0  0  0  0  0  0  0
    1.1032    0.6489    1.6628 H   0  0  0  0  0  0  0  0  0  0  0  0
    1.3697    1.7270    0.2821 H   0  0  0  0  0  0  0  0  0  0  0  0
    1.4914   -0.1917   -1.2697 H   0  0  0  0  0  0  0  0  0  0  0  0
    1.6314   -1.7957    1.1301 H   0  0  0  0  0  0  0  0  0  0  0  0
    1.6132   -2.2973   -0.5416 H   0  0  0  0  0  0  0  0  0  0  0  0
   -1.0037   -1.9236    0.1510 H   0  0  0  0  0  0  0  0  0  0  0  0
   -3.3253   -1.7591   -0.1013 H   0  0  0  0  0  0  0  0  0  0  0  0
   -3.0936   -0.4921   -1.3102 H   0  0  0  0  0  0  0  0  0  0  0  0
   -3.3946   -0.0950    1.7019 H   0  0  0  0  0  0  0  0  0  0  0  0
   -4.4933    0.2800    0.3598 H   0  0  0  0  0  0  0  0  0  0  0  0
   -3.3439    1.9188   -0.3197 H   0  0  0  0  0  0  0  0  0  0  0  0
  1  2  1  0
  2  3  1  0
  3  4  1  0
  4  5  1  0
  4  6  1  0
  6  7  2  0
  6  8  1  0
  8  9  1  0
  9 10  1  0
 10 11  1  0
  1 12  1  0
  1 13  1  0
  1 14  1  0
  3 15  1  0
  3 16  1  0
  4 17  1  6
  5 18  1  0
  5 19  1  0
  8 20  1  0
  9 21  1  0
  9 22  1  0
 10 23  1  0
 10 24  1  0
 11 25  1  0
M  END
$$$$

     RDKit          3D

 25 24  0  0  0  0  0  0  0  0999 V2000
   -3.1169    1.5401   -0.1411 C   0  0  0  0  0  0  0  0  0  0  0  0
   -1.9868    0.9268    0.3955 O   0  0  0  0  0  0  0  0  0  0  0  0
   -2.0613   -0.4080    0.0765 C   0  0  0  0  0  0  0  0  0  0  0  0
   -0.8688   -1.2159    0.6096 C   0  0  1  0  0  0  0  0  0  0  0  0
   -1.1078   -2.5573    0.1946 N   0  0  0  0  0  0  0  0  0  0  0  0
    0.4130   -0.7033    0.0634 C   0  0  0  0  0  0  0  0  0  0  0  0
    1.0934   -1.4189   -0.6780 O   0  0  0  0  0  0  0  0  0  0  0  0
    0.8795    0.5971    0.3740 N   0  0  0  0  0  0  0  0  0  0  0  0
    2.0782    1.2090   -0.0732 C   0  0  0  0  0  0  0  0  0  0  0  0
    3.3648    0.5630    0.2933 C   0  0  0  0  0  0  0  0  0  0  0  0
    3.5358   -0.7360   -0.1647 O   0  0  0  0  0  0  0  0  0  0  0  0
   -3.0646    1.3629   -1.2499 H   0  0  0  0  0  0  0  0  0  0  0  0
   -4.0594    1.0434    0.1844 H   0  0  0  0  0  0  0  0  0  0  0  0
   -3.1573    2.6246    0.0889 H   0  0  0  0  0  0  0  0  0  0  0  0
   -2.1137   -0.5403   -1.0208 H   0  0  0  0  0  0  0  0  0  0  0  0
   -2.9632   -0.8215    0.5737 H   0  0  0  0  0  0  0  0  0  0  0  0
   -0.8797   -1.1887    1.7179 H   0  0  0  0  0  0  0  0  0  0  0  0
   -1.7297   -2.7019   -0.5845 H   0  0  0  0  0  0  0  0  0  0  0  0
   -0.9956   -3.2852    0.8896 H   0  0  0  0  0  0  0  0  0  0  0  0
    0.2429    1.1482    1.0136 H   0  0  0  0  0  0  0  0  0  0  0  0
    2.0902    1.3956   -1.1781 H   0  0  0  0  0  0  0  0  0  0  0  0
    2.1242    2.2513    0.3564 H   0  0  0  0  0  0  0  0  0  0  0  0
    3.6081    0.6646    1.3735 H   0  0  0  0  0  0  0  0  0  0  0  0
    4.1743    1.1625   -0.2229 H   0  0  0  0  0  0  0  0  0  0  0  0
    4.5004   -0.9122   -0.2106 H   0  0  0  0  0  0  0  0  0  0  0  0
  1  2  1  0
  2  3  1  0
  3  4  1  0
  4  5  1  0
  4  6  1  0
  6  7  2  0
  6  8  1  0
  8  9  1  0
  9 10  1  0
 10 11  1  0
  1 12  1  0
  1 13  1  0
  1 14  1  0
  3 15  1  0
  3 16  1  0
  4 17  1  1
  5 18  1  0
  5 19  1  0
  8 20  1  0
  9 21  1  0
  9 22  1  0
 10 23  1  0
 10 24  1  0
 11 25  1  0
M  END
$$$$

     RDKit          3D

 25 24  0  0  0  0  0  0  0  0999 V2000
    3.7505    0.5964   -0.5799 C   0  0  0  0  0  0  0  0  0  0  0  0
    3.4280   -0.6991   -0.3283 O   0  0  0  0  0  0  0  0  0  0  0  0
    2.1293   -1.0939   -0.4971 C   0  0  0  0  0  0  0  0  0  0  0  0
    1.1757   -0.3637    0.3701 C   0  0  1  0  0  0  0  0  0  0  0  0
    1.1369    1.0389    0.1351 N   0  0  0  0  0  0  0  0  0  0  0  0
   -0.1820   -0.9840    0.3952 C   0  0  0  0  0  0  0  0  0  0  0  0
   -0.2753   -2.2163    0.5947 O   0  0  0  0  0  0  0  0  0  0  0  0
   -1.3355   -0.1896    0.1969 N   0  0  0  0  0  0  0  0  0  0  0  0
   -2.6879   -0.7635    0.2146 C   0  0  0  0  0  0  0  0  0  0  0  0
   -3.6826    0.3524   -0.0281 C   0  0  0  0  0  0  0  0  0  0  0  0
   -3.5629    1.3121    0.9691 O   0  0  0  0  0  0  0  0  0  0  0  0
    3.4711    0.8267   -1.6356 H   0  0  0  0  0  0  0  0  0  0  0  0
    3.3986    1.3348    0.1468 H   0  0  0  0  0  0  0  0  0  0  0  0
    4.8828    0.7467   -0.5761 H   0  0  0  0  0  0  0  0  0  0  0  0
    1.8378   -1.0342   -1.5853 H   0  0  0  0  0  0  0  0  0  0  0  0
    2.0979   -2.1971   -0.2243 H   0  0  0  0  0  0  0  0  0  0  0  0
    1.5463   -0.4943    1.4332 H   0  0  0  0  0  0  0  0  0  0  0  0
    0.5626    1.4892    0.9033 H   0  0  0  0  0  0  0  0  0  0  0  0
    0.7273    1.2736   -0.7898 H   0  0  0  0  0  0  0  0  0  0  0  0
   -1.1750    0.8331    0.0361 H   0  0  0  0  0  0  0  0  0  0  0  0
   -2.7821   -1.5660   -0.5248 H   0  0  0  0  0  0  0  0  0  0  0  0
   -2.8539   -1.1143    1.2611 H   0  0  0  0  0  0  0  0  0  0  0  0
   -3.4989    0.8016   -1.0409 H   0  0  0  0  0  0  0  0  0  0  0  0
   -4.6913   -0.0950   -0.0418 H   0  0  0  0  0  0  0  0  0  0  0  0
   -3.4173    2.2055    0.5346 H   0  0  0  0  0  0  0  0  0  0  0  0
  1  2  1  0
  2  3  1  0
  3  4  1  0
  4  5  1  0
  4  6  1  0
  6  7  2  0
  6  8  1  0
  8  9  1  0
  9 10  1  0
 10 11  1  0
  1 12  1  0
  1 13  1  0
  1 14  1  0
  3 15  1  0
  3 16  1  0
  4 17  1  1
  5 18  1  0
  5 19  1  0
  8 20  1  0
  9 21  1  0
  9 22  1  0
 10 23  1  0
 10 24  1  0
 11 25  1  0
M  END
$$$$

     RDKit          3D

 25 24  0  0  0  0  0  0  0  0999 V2000
   -3.5883   -0.9246    0.2439 C   0  0  0  0  0  0  0  0  0  0  0  0
   -3.0440    0.1495    0.8980 O   0  0  0  0  0  0  0  0  0  0  0  0
   -1.6775    0.2362    0.8347 C   0  0  0  0  0  0  0  0  0  0  0  0
   -1.1372    0.3503   -0.5738 C   0  0  1  0  0  0  0  0  0  0  0  0
   -1.6881    1.5434   -1.1713 N   0  0  0  0  0  0  0  0  0  0  0  0
    0.3266    0.4910   -0.4883 C   0  0  0  0  0  0  0  0  0  0  0  0
    0.8578    1.5461   -0.9123 O   0  0  0  0  0  0  0  0  0  0  0  0
    1.1720   -0.5227    0.0574 N   0  0  0  0  0  0  0  0  0  0  0  0
    2.5978   -0.3566    0.1275 C   0  0  0  0  0  0  0  0  0  0  0  0
    3.2298   -0.1553   -1.2284 C   0  0  0  0  0  0  0  0  0  0  0  0
    4.6016   -0.0077   -1.0289 O   0  0  0  0  0  0  0  0  0  0  0  0
   -4.7010   -0.8625    0.3826 H   0  0  0  0  0  0  0  0  0  0  0  0
   -3.4356   -0.7690   -0.8526 H   0  0  0  0  0  0  0  0  0  0  0  0
   -3.2704   -1.9066    0.5956 H   0  0  0  0  0  0  0  0  0  0  0  0
   -1.3803    1.1804    1.3560 H   0  0  0  0  0  0  0  0  0  0  0  0
   -1.1378   -0.5798    1.3353 H   0  0  0  0  0  0  0  0  0  0  0  0
   -1.4390   -0.5287   -1.1908 H   0  0  0  0  0  0  0  0  0  0  0  0
   -1.1193    2.3543   -0.8476 H   0  0  0  0  0  0  0  0  0  0  0  0
   -2.6901    1.6481   -0.9125 H   0  0  0  0  0  0  0  0  0  0  0  0
    0.7391   -1.4029    0.4122 H   0  0  0  0  0  0  0  0  0  0  0  0
    3.0680   -1.2592    0.5680 H   0  0  0  0  0  0  0  0  0  0  0  0
    2.8891    0.4898    0.7942 H   0  0  0  0  0  0  0  0  0  0  0  0
    2.8672    0.7150   -1.7695 H   0  0  0  0  0  0  0  0  0  0  0  0
    3.0914   -1.1060   -1.7903 H   0  0  0  0  0  0  0  0  0  0  0  0
    4.8682   -0.3223   -0.1281 H   0  0  0  0  0  0  0  0  0  0  0  0
  1  2  1  0
  2  3  1  0
  3  4  1  0
  4  5  1  0
  4  6  1  0
  6  7  2  0
  6  8  1  0
  8  9  1  0
  9 10  1  0
 10 11  1  0
  1 12  1  0
  1 13  1  0
  1 14  1  0
  3 15  1  0
  3 16  1  0
  4 17  1  6
  5 18  1  0
  5 19  1  0
  8 20  1  0
  9 21  1  0
  9 22  1  0
 10 23  1  0
 10 24  1  0
 11 25  1  0
M  END
$$$$

     RDKit          3D

 25 24  0  0  0  0  0  0  0  0999 V2000
    3.8471    0.4177   -0.3248 C   0  0  0  0  0  0  0  0  0  0  0  0
    3.4659   -0.6618    0.4175 O   0  0  0  0  0  0  0  0  0  0  0  0
    2.1503   -1.0071    0.4136 C   0  0  0  0  0  0  0  0  0  0  0  0
    1.1955    0.0316    0.9172 C   0  0  1  0  0  0  0  0  0  0  0  0
    1.2239    1.2469    0.1446 N   0  0  0  0  0  0  0  0  0  0  0  0
   -0.1751   -0.5804    0.8627 C   0  0  0  0  0  0  0  0  0  0  0  0
   -0.4291   -1.6425    1.4634 O   0  0  0  0  0  0  0  0  0  0  0  0
   -1.1854    0.0744    0.1105 N   0  0  0  0  0  0  0  0  0  0  0  0
   -2.5119   -0.5563    0.0824 C   0  0  0  0  0  0  0  0  0  0  0  0
   -3.4544    0.2760   -0.7619 C   0  0  0  0  0  0  0  0  0  0  0  0
   -4.6887   -0.3742   -0.7471 O   0  0  0  0  0  0  0  0  0  0  0  0
    3.5846    0.2550   -1.4033 H   0  0  0  0  0  0  0  0  0  0  0  0
    4.9808    0.4230   -0.2978 H   0  0  0  0  0  0  0  0  0  0  0  0
    3.5472    1.4021    0.0265 H   0  0  0  0  0  0  0  0  0  0  0  0
    1.7833   -1.3072   -0.6061 H   0  0  0  0  0  0  0  0  0  0  0  0
    2.0479   -1.8836    1.1172 H   0  0  0  0  0  0  0  0  0  0  0  0
    1.3856    0.2661    2.0044 H   0  0  0  0  0  0  0  0  0  0  0  0
    0.5229    1.9059    0.5041 H   0  0  0  0  0  0  0  0  0  0  0  0
    1.0218    1.0187   -0.8382 H   0  0  0  0  0  0  0  0  0  0  0  0
   -1.0366    0.9645   -0.4139 H   0  0  0  0  0  0  0  0  0  0  0  0
   -2.8824   -0.5288    1.1326 H   0  0  0  0  0  0  0  0  0  0  0  0
   -2.4616   -1.5906   -0.2967 H   0  0  0  0  0  0  0  0  0  0  0  0
   -3.0217    0.3279   -1.7711 H   0  0  0  0  0  0  0  0  0  0  0  0
   -3.4900    1.2842   -0.3443 H   0  0  0  0  0  0  0  0  0  0  0  0
   -5.4199    0.2385   -0.4552 H   0  0  0  0  0  0  0  0  0  0  0  0
  1  2  1  0
  2  3  1  0
  3  4  1  0
  4  5  1  0
  4  6  1  0
  6  7  2  0
  6  8  1  0
  8  9  1  0
  9 10  1  0
 10 11  1  0
  1 12  1  0
  1 13  1  0
  1 14  1  0
  3 15  1  0
  3 16  1  0
  4 17  1  1
  5 18  1  0
  5 19  1  0
  8 20  1  0
  9 21  1  0
  9 22  1  0
 10 23  1  0
 10 24  1  0
 11 25  1  0
M  END
$$$$
