
     RDKit          3D

 23 23  0  0  0  0  0  0  0  0999 V2000
    4.3158    0.7086   -0.0937 C   0  0  0  0  0  0  0  0  0  0  0  0
    2.9968    0.2360    0.2480 N   0  0  0  0  0  4  0  0  0  0  0  0
    1.9466    0.3033   -0.4942 C   0  0  0  0  0  0  0  0  0  0  0  0
    0.9174   -0.3676   -0.0630 C   0  0  0  0  0  0  0  0  0  0  0  0
   -0.3543   -0.6567   -0.7737 C   0  0  0  0  0  0  0  0  0  0  0  0
   -1.4504   -0.0754    0.0112 N   0  0  0  0  0  0  0  0  0  0  0  0
   -2.8021   -0.1872   -0.4153 C   0  0  0  0  0  0  0  0  0  0  0  0
   -3.0080   -0.8057   -1.4925 O   0  0  0  0  0  0  0  0  0  0  0  0
   -3.8950    0.3975    0.3760 C   0  0  0  0  0  0  0  0  0  0  0  0
   -5.0948    0.1336   -0.2801 O   0  0  0  0  0  0  0  0  0  0  0  0
    1.2648   -0.7762    1.2545 N   0  0  0  0  0  0  0  0  0  0  0  0
    2.6071   -0.3761    1.4292 N   0  0  0  0  0  0  0  0  0  0  0  0
    5.1006   -0.0867    0.0574 H   0  0  0  0  0  0  0  0  0  0  0  0
    4.6253    1.6097    0.4353 H   0  0  0  0  0  0  0  0  0  0  0  0
    4.3593    0.9401   -1.1846 H   0  0  0  0  0  0  0  0  0  0  0  0
   -0.5108   -1.7451   -0.9200 H   0  0  0  0  0  0  0  0  0  0  0  0
   -0.3133   -0.2127   -1.7898 H   0  0  0  0  0  0  0  0  0  0  0  0
   -1.2827    0.4382    0.9052 H   0  0  0  0  0  0  0  0  0  0  0  0
   -3.8175    1.4945    0.4885 H   0  0  0  0  0  0  0  0  0  0  0  0
   -3.9481   -0.0896    1.3754 H   0  0  0  0  0  0  0  0  0  0  0  0
   -5.4549    0.9138   -0.7486 H   0  0  0  0  0  0  0  0  0  0  0  0
    0.6397   -1.2677    1.9315 H   0  0  0  0  0  0  0  0  0  0  0  0
    3.1585   -0.5288    2.2886 H   0  0  0  0  0  0  0  0  0  0  0  0
  1  2  1  0
  2  3  2  0
  3  4  2  0
  4  5  1  0
  5  6  1  0
  6  7  1  0
  7  8  2  0
  7  9  1  0
  9 10  1  0
  4 11  1  0
 11 12  1  0
 12  2  1  0
  1 13  1  0
  1 14  1  0
  1 15  1  0
  5 16  1  0
  5 17  1  0
  6 18  1  0
  9 19  1  0
  9 20  1  0
 10 21  1  0
 11 22  1  0
 12 23  1  0
M  CHG  1   2   1
M  END
$$$$

     RDKit          3D

 23 23  0  0  0  0  0  0  0  0999 V2000
    4.3858    0.2086   -0.1926 C   0  0  0  0  0  0  0  0  0  0  0  0
    3.0404   -0.2824    0.0817 N   0  0  0  0  0  4  0  0  0  0  0  0
    1.9614    0.3384   -0.1636 C   0  0  0  0  0  0  0  0  0  0  0  0
    0.8871   -0.0894    0.4396 C   0  0  0  0  0  0  0  0  0  0  0  0
   -0.3744    0.6514    0.5803 C   0  0  0  0  0  0  0  0  0  0  0  0
   -1.5074    0.0053   -0.0093 N   0  0  0  0  0  0  0  0  0  0  0  0
   -2.7729    0.6359    0.0703 C   0  0  0  0  0  0  0  0  0  0  0  0
   -2.8637    1.7484    0.6585 O   0  0  0  0  0  0  0  0  0  0  0  0
   -4.0083    0.0179   -0.5253 C   0  0  0  0  0  0  0  0  0  0  0  0
   -5.0974    0.8431   -0.3025 O   0  0  0  0  0  0  0  0  0  0  0  0
    1.2617   -1.3885    0.8902 N   0  0  0  0  0  0  0  0  0  0  0  0
    2.6498   -1.4970    0.6529 N   0  0  0  0  0  0  0  0  0  0  0  0
    4.7054    0.0217   -1.2202 H   0  0  0  0  0  0  0  0  0  0  0  0
    4.3278    1.3276   -0.0634 H   0  0  0  0  0  0  0  0  0  0  0  0
    5.1241   -0.1370    0.5380 H   0  0  0  0  0  0  0  0  0  0  0  0
   -0.2589    1.6676    0.1543 H   0  0  0  0  0  0  0  0  0  0  0  0
   -0.6443    0.8312    1.6599 H   0  0  0  0  0  0  0  0  0  0  0  0
   -1.4443   -0.9073   -0.4942 H   0  0  0  0  0  0  0  0  0  0  0  0
   -3.8323   -0.2333   -1.5636 H   0  0  0  0  0  0  0  0  0  0  0  0
   -4.1913   -0.9165    0.0636 H   0  0  0  0  0  0  0  0  0  0  0  0
   -5.2091    1.5405   -1.0102 H   0  0  0  0  0  0  0  0  0  0  0  0
    0.6082   -2.0870    1.3058 H   0  0  0  0  0  0  0  0  0  0  0  0
    3.2524   -2.2991    0.8558 H   0  0  0  0  0  0  0  0  0  0  0  0
  1  2  1  0
  2  3  2  0
  3  4  2  0
  4  5  1  0
  5  6  1  0
  6  7  1  0
  7  8  2  0
  7  9  1  0
  9 10  1  0
  4 11  1  0
 11 12  1  0
 12  2  1  0
  1 13  1  0
  1 14  1  0
  1 15  1  0
  5 16  1  0
  5 17  1  0
  6 18  1  0
  9 19  1  0
  9 20  1  0
 10 21  1  0
 11 22  1  0
 12 23  1  0
M  CHG  1   2   1
M  END
$$$$

     RDKit          3D

 23 23  0  0  0  0  0  0  0  0999 V2000
   -3.7910   -0.7849    1.0743 C   0  0  0  0  0  0  0  0  0  0  0  0
   -2.6075   -0.3958    0.3269 N   0  0  0  0  0  4  0  0  0  0  0  0
   -1.5830    0.2081    0.7868 C   0  0  0  0  0  0  0  0  0  0  0  0
   -0.7718    0.7294   -0.0901 C   0  0  0  0  0  0  0  0  0  0  0  0
    0.3181    1.7272    0.1000 C   0  0  0  0  0  0  0  0  0  0  0  0
    1.6013    1.2020   -0.3003 N   0  0  0  0  0  0  0  0  0  0  0  0
    2.1899    0.0577    0.2886 C   0  0  0  0  0  0  0  0  0  0  0  0
    1.5456   -0.5147    1.2046 O   0  0  0  0  0  0  0  0  0  0  0  0
    3.5268   -0.4631   -0.1510 C   0  0  0  0  0  0  0  0  0  0  0  0
    3.8758   -1.5936    0.5849 O   0  0  0  0  0  0  0  0  0  0  0  0
   -1.1646    0.1141   -1.3354 N   0  0  0  0  0  0  0  0  0  0  0  0
   -2.3334   -0.5911   -1.0301 N   0  0  0  0  0  0  0  0  0  0  0  0
   -4.6417   -0.0751    0.9072 H   0  0  0  0  0  0  0  0  0  0  0  0
   -3.5774   -0.7655    2.1537 H   0  0  0  0  0  0  0  0  0  0  0  0
   -4.0611   -1.8275    0.7595 H   0  0  0  0  0  0  0  0  0  0  0  0
    0.3040    1.9782    1.2014 H   0  0  0  0  0  0  0  0  0  0  0  0
    0.0853    2.6871   -0.4045 H   0  0  0  0  0  0  0  0  0  0  0  0
    2.1258    1.6831   -1.0590 H   0  0  0  0  0  0  0  0  0  0  0  0
    4.3087    0.2984    0.0311 H   0  0  0  0  0  0  0  0  0  0  0  0
    3.5229   -0.7399   -1.2267 H   0  0  0  0  0  0  0  0  0  0  0  0
    4.6718   -1.9862    0.1082 H   0  0  0  0  0  0  0  0  0  0  0  0
   -0.6509    0.2115   -2.2269 H   0  0  0  0  0  0  0  0  0  0  0  0
   -2.8937   -1.1592   -1.7032 H   0  0  0  0  0  0  0  0  0  0  0  0
  1  2  1  0
  2  3  2  0
  3  4  2  0
  4  5  1  0
  5  6  1  0
  6  7  1  0
  7  8  2  0
  7  9  1  0
  9 10  1  0
  4 11  1  0
 11 12  1  0
 12  2  1  0
  1 13  1  0
  1 14  1  0
  1 15  1  0
  5 16  1  0
  5 17  1  0
  6 18  1  0
  9 19  1  0
  9 20  1  0
 10 21  1  0
 11 22  1  0
 12 23  1  0
M  CHG  1   2   1
M  END
$$$$

     RDKit          3D

 23 23  0  0  0  0  0  0  0  0999 V2000
   -2.7790    1.8575   -0.3226 C   0  0  0  0  0  0  0  0  0  0  0  0
   -2.0881    0.5929   -0.5354 N   0  0  0  0  0  4  0  0  0  0  0  0
   -0.8525    0.3286   -0.3923 C   0  0  0  0  0  0  0  0  0  0  0  0
   -0.4863   -0.8922   -0.6508 C   0  0  0  0  0  0  0  0  0  0  0  0
    0.9019   -1.3950   -0.5458 C   0  0  0  0  0  0  0  0  0  0  0  0
    1.7931   -0.3580   -0.1185 N   0  0  0  0  0  0  0  0  0  0  0  0
    1.6579    0.3309    1.1197 C   0  0  0  0  0  0  0  0  0  0  0  0
    0.7051    0.0026    1.8649 O   0  0  0  0  0  0  0  0  0  0  0  0
    2.5593    1.3975    1.5789 C   0  0  0  0  0  0  0  0  0  0  0  0
    3.5750    1.6828    0.6854 O   0  0  0  0  0  0  0  0  0  0  0  0
   -1.6886   -1.5479   -1.0289 N   0  0  0  0  0  0  0  0  0  0  0  0
   -2.7102   -0.5856   -0.9513 N   0  0  0  0  0  0  0  0  0  0  0  0
   -3.7496    1.5995    0.1746 H   0  0  0  0  0  0  0  0  0  0  0  0
   -2.1419    2.5041    0.3111 H   0  0  0  0  0  0  0  0  0  0  0  0
   -2.9718    2.2838   -1.3202 H   0  0  0  0  0  0  0  0  0  0  0  0
    1.2586   -1.8009   -1.5197 H   0  0  0  0  0  0  0  0  0  0  0  0
    0.9657   -2.2748    0.1579 H   0  0  0  0  0  0  0  0  0  0  0  0
    2.5972   -0.0607   -0.7163 H   0  0  0  0  0  0  0  0  0  0  0  0
    1.9605    2.3287    1.7219 H   0  0  0  0  0  0  0  0  0  0  0  0
    2.9399    1.1084    2.5798 H   0  0  0  0  0  0  0  0  0  0  0  0
    4.0511    0.8814    0.3637 H   0  0  0  0  0  0  0  0  0  0  0  0
   -1.7707   -2.5443   -1.3045 H   0  0  0  0  0  0  0  0  0  0  0  0
   -3.7263   -0.6860   -1.1517 H   0  0  0  0  0  0  0  0  0  0  0  0
  1  2  1  0
  2  3  2  0
  3  4  2  0
  4  5  1  0
  5  6  1  0
  6  7  1  0
  7  8  2  0
  7  9  1  0
  9 10  1  0
  4 11  1  0
 11 12  1  0
 12  2  1  0
  1 13  1  0
  1 14  1  0
  1 15  1  0
  5 16  1  0
  5 17  1  0
  6 18  1  0
  9 19  1  0
  9 20  1  0
 10 21  1  0
 11 22  1  0
 12 23  1  0
M  CHG  1   2   1
M  END
$$$$

     RDKit          3D

 23 23  0  0  0  0  0  0  0  0999 V2000
   -2.7781    0.9771    1.2709 C   0  0  0  0  0  0  0  0  0  0  0  0
   -2.2509    0.0917    0.2695 N   0  0  0  0  0  4  0  0  0  0  0  0
   -0.9942    0.0648   -0.0224 C   0  0  0  0  0  0  0  0  0  0  0  0
   -0.6640   -0.7801   -0.9727 C   0  0  0  0  0  0  0  0  0  0  0  0
    0.7006   -0.9864   -1.5061 C   0  0  0  0  0  0  0  0  0  0  0  0
    1.6711   -0.1537   -0.8729 N   0  0  0  0  0  0  0  0  0  0  0  0
    1.9497   -0.1832    0.5088 C   0  0  0  0  0  0  0  0  0  0  0  0
    1.3194   -0.9815    1.2474 O   0  0  0  0  0  0  0  0  0  0  0  0
    2.9715    0.7026    1.1351 C   0  0  0  0  0  0  0  0  0  0  0  0
    3.5816    1.5247    0.1993 O   0  0  0  0  0  0  0  0  0  0  0  0
   -1.8726   -1.4099   -1.3398 N   0  0  0  0  0  0  0  0  0  0  0  0
   -2.8754   -0.8483   -0.5439 N   0  0  0  0  0  0  0  0  0  0  0  0
   -3.8815    0.8682    1.3425 H   0  0  0  0  0  0  0  0  0  0  0  0
   -2.3060    0.6966    2.2431 H   0  0  0  0  0  0  0  0  0  0  0  0
   -2.5432    2.0458    0.9966 H   0  0  0  0  0  0  0  0  0  0  0  0
    0.9303   -2.0733   -1.4196 H   0  0  0  0  0  0  0  0  0  0  0  0
    0.6746   -0.7732   -2.5955 H   0  0  0  0  0  0  0  0  0  0  0  0
    2.2369    0.5422   -1.4436 H   0  0  0  0  0  0  0  0  0  0  0  0
    2.5155    1.3480    1.9115 H   0  0  0  0  0  0  0  0  0  0  0  0
    3.7647    0.1026    1.6362 H   0  0  0  0  0  0  0  0  0  0  0  0
    3.7131    2.4493    0.5689 H   0  0  0  0  0  0  0  0  0  0  0  0
   -1.9717   -2.1568   -2.0756 H   0  0  0  0  0  0  0  0  0  0  0  0
   -3.8912   -1.0672   -0.5374 H   0  0  0  0  0  0  0  0  0  0  0  0
  1  2  1  0
  2  3  2  0
  3  4  2  0
  4  5  1  0
  5  6  1  0
  6  7  1  0
  7  8  2  0
  7  9  1  0
  9 10  1  0
  4 11  1  0
 11 12  1  0
 12  2  1  0
  1 13  1  0
  1 14  1  0
  1 15  1  0
  5 16  1  0
  5 17  1  0
  6 18  1  0
  9 19  1  0
  9 20  1  0
 10 21  1  0
 11 22  1  0
 12 23  1  0
M  CHG  1   2   1
M  END
$$$$

     RDKit          3D

 23 23  0  0  0  0  0  0  0  0999 V2000
   -3.4821    1.1515    1.3010 C   0  0  0  0  0  0  0  0  0  0  0  0
   -2.7017    0.1178    0.6028 N   0  0  0  0  0  4  0  0  0  0  0  0
   -1.4363    0.0221    0.5874 C   0  0  0  0  0  0  0  0  0  0  0  0
   -0.9313   -0.8511   -0.2321 C   0  0  0  0  0  0  0  0  0  0  0  0
    0.5125   -0.9838   -0.5336 C   0  0  0  0  0  0  0  0  0  0  0  0
    1.3088   -0.0345    0.1825 N   0  0  0  0  0  0  0  0  0  0  0  0
    2.7191   -0.0594   -0.0217 C   0  0  0  0  0  0  0  0  0  0  0  0
    3.2167   -0.9004   -0.8120 O   0  0  0  0  0  0  0  0  0  0  0  0
    3.6324    0.8802    0.6709 C   0  0  0  0  0  0  0  0  0  0  0  0
    4.9361    0.6176    0.2754 O   0  0  0  0  0  0  0  0  0  0  0  0
   -2.0569   -1.5720   -0.7088 N   0  0  0  0  0  0  0  0  0  0  0  0
   -3.1956   -0.9397   -0.1649 N   0  0  0  0  0  0  0  0  0  0  0  0
   -3.9714    0.7500    2.2021 H   0  0  0  0  0  0  0  0  0  0  0  0
   -4.2798    1.5491    0.6332 H   0  0  0  0  0  0  0  0  0  0  0  0
   -2.8028    1.9712    1.5468 H   0  0  0  0  0  0  0  0  0  0  0  0
    0.8683   -2.0096   -0.3171 H   0  0  0  0  0  0  0  0  0  0  0  0
    0.7062   -0.8345   -1.6332 H   0  0  0  0  0  0  0  0  0  0  0  0
    0.9449    0.6789    0.8454 H   0  0  0  0  0  0  0  0  0  0  0  0
    3.5143    0.8484    1.7721 H   0  0  0  0  0  0  0  0  0  0  0  0
    3.4106    1.9237    0.3683 H   0  0  0  0  0  0  0  0  0  0  0  0
    5.2874    1.2858   -0.3748 H   0  0  0  0  0  0  0  0  0  0  0  0
   -2.0076   -2.3996   -1.3355 H   0  0  0  0  0  0  0  0  0  0  0  0
   -4.1917   -1.2115   -0.3107 H   0  0  0  0  0  0  0  0  0  0  0  0
  1  2  1  0
  2  3  2  0
  3  4  2  0
  4  5  1  0
  5  6  1  0
  6  7  1  0
  7  8  2  0
  7  9  1  0
  9 10  1  0
  4 11  1  0
 11 12  1  0
 12  2  1  0
  1 13  1  0
  1 14  1  0
  1 15  1  0
  5 16  1  0
  5 17  1  0
  6 18  1  0
  9 19  1  0
  9 20  1  0
 10 21  1  0
 11 22  1  0
 12 23  1  0
M  CHG  1   2   1
M  END
$$$$

     RDKit          3D

 23 23  0  0  0  0  0  0  0  0999 V2000
   -3.9162    0.7309    0.5761 C   0  0  0  0  0  0  0  0  0  0  0  0
   -2.6379    0.1719    0.1487 N   0  0  0  0  0  4  0  0  0  0  0  0
   -1.5739    0.1476    0.8412 C   0  0  0  0  0  0  0  0  0  0  0  0
   -0.6253   -0.6365    0.4229 C   0  0  0  0  0  0  0  0  0  0  0  0
    0.5449   -1.0355    1.2098 C   0  0  0  0  0  0  0  0  0  0  0  0
    1.7965   -0.6435    0.6163 N   0  0  0  0  0  0  0  0  0  0  0  0
    2.1476    0.6939    0.3501 C   0  0  0  0  0  0  0  0  0  0  0  0
    1.3307    1.5943    0.6436 O   0  0  0  0  0  0  0  0  0  0  0  0
    3.4511    1.0914   -0.2671 C   0  0  0  0  0  0  0  0  0  0  0  0
    4.2438   -0.0060   -0.5335 O   0  0  0  0  0  0  0  0  0  0  0  0
   -1.0312   -0.9565   -0.9025 N   0  0  0  0  0  0  0  0  0  0  0  0
   -2.3231   -0.4340   -1.0694 N   0  0  0  0  0  0  0  0  0  0  0  0
   -3.7698    1.6148    1.2500 H   0  0  0  0  0  0  0  0  0  0  0  0
   -4.5219   -0.0395    1.1361 H   0  0  0  0  0  0  0  0  0  0  0  0
   -4.4816    0.9944   -0.3402 H   0  0  0  0  0  0  0  0  0  0  0  0
    0.5669   -2.1395    1.4165 H   0  0  0  0  0  0  0  0  0  0  0  0
    0.4657   -0.5849    2.2361 H   0  0  0  0  0  0  0  0  0  0  0  0
    2.4866   -1.3805    0.3662 H   0  0  0  0  0  0  0  0  0  0  0  0
    3.9919    1.7121    0.4923 H   0  0  0  0  0  0  0  0  0  0  0  0
    3.2887    1.6599   -1.2158 H   0  0  0  0  0  0  0  0  0  0  0  0
    3.9324   -0.5875   -1.2434 H   0  0  0  0  0  0  0  0  0  0  0  0
   -0.4438   -1.4837   -1.5877 H   0  0  0  0  0  0  0  0  0  0  0  0
   -2.9223   -0.4837   -1.9148 H   0  0  0  0  0  0  0  0  0  0  0  0
  1  2  1  0
  2  3  2  0
  3  4  2  0
  4  5  1  0
  5  6  1  0
  6  7  1  0
  7  8  2  0
  7  9  1  0
  9 10  1  0
  4 11  1  0
 11 12  1  0
 12  2  1  0
  1 13  1  0
  1 14  1  0
  1 15  1  0
  5 16  1  0
  5 17  1  0
  6 18  1  0
  9 19  1  0
  9 20  1  0
 10 21  1  0
 11 22  1  0
 12 23  1  0
M  CHG  1   2   1
M  END
$$$$

     RDKit          3D

 23 23  0  0  0  0  0  0  0  0999 V2000
    2.4537    2.0489    0.6013 C   0  0  0  0  0  0  0  0  0  0  0  0
    2.1290    0.6697    0.2972 N   0  0  0  0  0  4  0  0  0  0  0  0
    0.9459    0.2819   -0.0242 C   0  0  0  0  0  0  0  0  0  0  0  0
    0.8411   -0.9774   -0.3144 C   0  0  0  0  0  0  0  0  0  0  0  0
   -0.3502   -1.6838   -0.7585 C   0  0  0  0  0  0  0  0  0  0  0  0
   -1.5216   -0.8632   -0.8756 N   0  0  0  0  0  0  0  0  0  0  0  0
   -2.0617   -0.1652    0.2351 C   0  0  0  0  0  0  0  0  0  0  0  0
   -1.4953   -0.2730    1.3453 O   0  0  0  0  0  0  0  0  0  0  0  0
   -3.2712    0.6541    0.0126 C   0  0  0  0  0  0  0  0  0  0  0  0
   -3.7215    1.2919    1.1446 O   0  0  0  0  0  0  0  0  0  0  0  0
    2.1249   -1.5376   -0.1131 N   0  0  0  0  0  0  0  0  0  0  0  0
    2.9520   -0.4614    0.2831 N   0  0  0  0  0  0  0  0  0  0  0  0
    1.9076    2.4211    1.5051 H   0  0  0  0  0  0  0  0  0  0  0  0
    2.2752    2.7157   -0.2759 H   0  0  0  0  0  0  0  0  0  0  0  0
    3.5629    2.0922    0.7752 H   0  0  0  0  0  0  0  0  0  0  0  0
   -0.1145   -2.1611   -1.7287 H   0  0  0  0  0  0  0  0  0  0  0  0
   -0.6116   -2.5391   -0.0737 H   0  0  0  0  0  0  0  0  0  0  0  0
   -1.9648   -0.8046   -1.8383 H   0  0  0  0  0  0  0  0  0  0  0  0
   -3.1011    1.4259   -0.7630 H   0  0  0  0  0  0  0  0  0  0  0  0
   -4.0716   -0.0157   -0.4138 H   0  0  0  0  0  0  0  0  0  0  0  0
   -3.3544    0.8704    1.9691 H   0  0  0  0  0  0  0  0  0  0  0  0
    2.4795   -2.5122   -0.2095 H   0  0  0  0  0  0  0  0  0  0  0  0
    3.9676   -0.4776    0.5215 H   0  0  0  0  0  0  0  0  0  0  0  0
  1  2  1  0
  2  3  2  0
  3  4  2  0
  4  5  1  0
  5  6  1  0
  6  7  1  0
  7  8  2  0
  7  9  1  0
  9 10  1  0
  4 11  1  0
 11 12  1  0
 12  2  1  0
  1 13  1  0
  1 14  1  0
  1 15  1  0
  5 16  1  0
  5 17  1  0
  6 18  1  0
  9 19  1  0
  9 20  1  0
 10 21  1  0
 11 22  1  0
 12 23  1  0
M  CHG  1   2   1
M  END
$$$$
