
     RDKit          3D

 26 27  0  0  0  0  0  0  0  0999 V2000
    3.4997   -1.6374    0.4847 O   0  0  0  0  0  0  0  0  0  0  0  0
    3.8597   -0.3058    0.6950 C   0  0  0  0  0  0  0  0  0  0  0  0
    2.6068    0.4086    1.1981 C   0  0  0  0  0  0  0  0  0  0  0  0
    1.6105    0.2724    0.1705 N   0  0  0  0  0  4  0  0  0  0  0  0
    0.4964   -0.2832    0.3036 C   0  0  0  0  0  0  0  0  0  0  0  0
   -0.3315   -0.2264   -0.7065 C   0  0  0  0  0  0  0  0  0  0  0  0
   -1.7342   -0.7087   -0.7579 C   0  0  2  0  0  0  0  0  0  0  0  0
   -2.6491    0.3647   -1.0508 N   0  0  0  0  0  0  0  0  0  0  0  0
   -3.8084    0.1500   -0.2085 C   0  0  0  0  0  0  0  0  0  0  0  0
   -3.2898   -0.7761    0.8510 C   0  0  0  0  0  0  0  0  0  0  0  0
   -2.0566   -1.2339    0.4681 O   0  0  0  0  0  0  0  0  0  0  0  0
    0.4251    0.4061   -1.7475 N   0  0  0  0  0  0  0  0  0  0  0  0
    1.6622    0.7133   -1.1555 N   0  0  0  0  0  0  0  0  0  0  0  0
    3.2678   -2.0718    1.3608 H   0  0  0  0  0  0  0  0  0  0  0  0
    4.7064   -0.2062    1.3792 H   0  0  0  0  0  0  0  0  0  0  0  0
    4.0577    0.1312   -0.3152 H   0  0  0  0  0  0  0  0  0  0  0  0
    2.8193    1.4898    1.3619 H   0  0  0  0  0  0  0  0  0  0  0  0
    2.2722   -0.0597    2.1349 H   0  0  0  0  0  0  0  0  0  0  0  0
   -1.8795   -1.4951   -1.5302 H   0  0  0  0  0  0  0  0  0  0  0  0
   -2.2161    1.3102   -0.8989 H   0  0  0  0  0  0  0  0  0  0  0  0
   -4.6516   -0.2864   -0.7810 H   0  0  0  0  0  0  0  0  0  0  0  0
   -4.0873    1.1380    0.2257 H   0  0  0  0  0  0  0  0  0  0  0  0
   -4.0323   -1.5996    0.9850 H   0  0  0  0  0  0  0  0  0  0  0  0
   -3.1516   -0.2448    1.8368 H   0  0  0  0  0  0  0  0  0  0  0  0
    0.1215    0.5901   -2.7113 H   0  0  0  0  0  0  0  0  0  0  0  0
    2.4829    1.1799   -1.5922 H   0  0  0  0  0  0  0  0  0  0  0  0
  1  2  1  0
  2  3  1  0
  3  4  1  0
  4  5  2  0
  5  6  2  0
  6  7  1  0
  7  8  1  0
  8  9  1  0
  9 10  1  0
 10 11  1  0
  6 12  1  0
 12 13  1  0
 13  4  1  0
 11  7  1  0
  1 14  1  0
  2 15  1  0
  2 16  1  0
  3 17  1  0
  3 18  1  0
  7 19  1  6
  8 20  1  0
  9 21  1  0
  9 22  1  0
 10 23  1  0
 10 24  1  0
 12 25  1  0
 13 26  1  0
M  CHG  1   4   1
M  END
$$$$

     RDKit          3D

 26 27  0  0  0  0  0  0  0  0999 V2000
    4.1625    1.0719    1.6552 O   0  0  0  0  0  0  0  0  0  0  0  0
    2.8836    0.8827    1.1400 C   0  0  0  0  0  0  0  0  0  0  0  0
    2.8913   -0.3639    0.3222 C   0  0  0  0  0  0  0  0  0  0  0  0
    1.5926   -0.6515   -0.2637 N   0  0  0  0  0  4  0  0  0  0  0  0
    0.5018    0.0114   -0.1609 C   0  0  0  0  0  0  0  0  0  0  0  0
   -0.5143   -0.4132   -0.8586 C   0  0  0  0  0  0  0  0  0  0  0  0
   -1.8658    0.1527   -1.0359 C   0  0  2  0  0  0  0  0  0  0  0  0
   -2.0547    1.3794   -0.2989 N   0  0  0  0  0  0  0  0  0  0  0  0
   -3.1774    1.1116    0.6139 C   0  0  0  0  0  0  0  0  0  0  0  0
   -3.0402   -0.4135    0.7226 C   0  0  0  0  0  0  0  0  0  0  0  0
   -2.8577   -0.7327   -0.6218 O   0  0  0  0  0  0  0  0  0  0  0  0
   -0.0651   -1.6152   -1.4728 N   0  0  0  0  0  0  0  0  0  0  0  0
    1.2806   -1.7435   -1.0776 N   0  0  0  0  0  0  0  0  0  0  0  0
    4.8707    0.9249    0.9680 H   0  0  0  0  0  0  0  0  0  0  0  0
    2.1997    0.8234    2.0150 H   0  0  0  0  0  0  0  0  0  0  0  0
    2.6601    1.7675    0.4933 H   0  0  0  0  0  0  0  0  0  0  0  0
    3.1922   -1.2174    0.9631 H   0  0  0  0  0  0  0  0  0  0  0  0
    3.6698   -0.2564   -0.4592 H   0  0  0  0  0  0  0  0  0  0  0  0
   -2.0412    0.4132   -2.1208 H   0  0  0  0  0  0  0  0  0  0  0  0
   -2.3477    2.1760   -0.8880 H   0  0  0  0  0  0  0  0  0  0  0  0
   -3.0480    1.5995    1.5776 H   0  0  0  0  0  0  0  0  0  0  0  0
   -4.1317    1.3492    0.1115 H   0  0  0  0  0  0  0  0  0  0  0  0
   -2.1212   -0.5927    1.3172 H   0  0  0  0  0  0  0  0  0  0  0  0
   -3.9347   -0.8732    1.1554 H   0  0  0  0  0  0  0  0  0  0  0  0
   -0.6187   -2.2651   -2.0878 H   0  0  0  0  0  0  0  0  0  0  0  0
    1.9134   -2.5251   -1.3560 H   0  0  0  0  0  0  0  0  0  0  0  0
  1  2  1  0
  2  3  1  0
  3  4  1  0
  4  5  2  0
  5  6  2  0
  6  7  1  0
  7  8  1  0
  8  9  1  0
  9 10  1  0
 10 11  1  0
  6 12  1  0
 12 13  1  0
 13  4  1  0
 11  7  1  0
  1 14  1  0
  2 15  1  0
  2 16  1  0
  3 17  1  0
  3 18  1  0
  7 19  1  6
  8 20  1  0
  9 21  1  0
  9 22  1  0
 10 23  1  0
 10 24  1  0
 12 25  1  0
 13 26  1  0
M  CHG  1   4   1
M  END
$$$$

     RDKit          3D

 26 27  0  0  0  0  0  0  0  0999 V2000
    2.7722    1.3776    1.1556 O   0  0  0  0  0  0  0  0  0  0  0  0
    3.4356    0.7440    0.1134 C   0  0  0  0  0  0  0  0  0  0  0  0
    3.1275   -0.7150    0.0452 C   0  0  0  0  0  0  0  0  0  0  0  0
    1.7270   -0.9919   -0.1519 N   0  0  0  0  0  4  0  0  0  0  0  0
    0.7388   -0.1982   -0.2734 C   0  0  0  0  0  0  0  0  0  0  0  0
   -0.4153   -0.7573   -0.5079 C   0  0  0  0  0  0  0  0  0  0  0  0
   -1.7391   -0.1096   -0.7619 C   0  0  2  0  0  0  0  0  0  0  0  0
   -1.6581    1.3158   -0.7291 N   0  0  0  0  0  0  0  0  0  0  0  0
   -2.9675    1.7043   -0.2084 C   0  0  0  0  0  0  0  0  0  0  0  0
   -3.7043    0.3882   -0.0250 C   0  0  0  0  0  0  0  0  0  0  0  0
   -2.6300   -0.4789    0.2355 O   0  0  0  0  0  0  0  0  0  0  0  0
   -0.1630   -2.1565   -0.4745 N   0  0  0  0  0  0  0  0  0  0  0  0
    1.2220   -2.2930   -0.2442 N   0  0  0  0  0  0  0  0  0  0  0  0
    3.1413    2.2993    1.2053 H   0  0  0  0  0  0  0  0  0  0  0  0
    3.1363    1.2346   -0.8521 H   0  0  0  0  0  0  0  0  0  0  0  0
    4.5316    0.8549    0.2422 H   0  0  0  0  0  0  0  0  0  0  0  0
    3.7079   -1.1452   -0.8043 H   0  0  0  0  0  0  0  0  0  0  0  0
    3.5065   -1.2159    0.9645 H   0  0  0  0  0  0  0  0  0  0  0  0
   -2.1247   -0.5062   -1.7242 H   0  0  0  0  0  0  0  0  0  0  0  0
   -1.5465    1.6775   -1.7032 H   0  0  0  0  0  0  0  0  0  0  0  0
   -2.8953    2.2257    0.7608 H   0  0  0  0  0  0  0  0  0  0  0  0
   -3.5092    2.3593   -0.9179 H   0  0  0  0  0  0  0  0  0  0  0  0
   -4.2299    0.0754   -0.9391 H   0  0  0  0  0  0  0  0  0  0  0  0
   -4.3844    0.4023    0.8418 H   0  0  0  0  0  0  0  0  0  0  0  0
   -0.8492   -2.9085   -0.5937 H   0  0  0  0  0  0  0  0  0  0  0  0
    1.7698   -3.1828   -0.1583 H   0  0  0  0  0  0  0  0  0  0  0  0
  1  2  1  0
  2  3  1  0
  3  4  1  0
  4  5  2  0
  5  6  2  0
  6  7  1  0
  7  8  1  0
  8  9  1  0
  9 10  1  0
 10 11  1  0
  6 12  1  0
 12 13  1  0
 13  4  1  0
 11  7  1  0
  1 14  1  0
  2 15  1  0
  2 16  1  0
  3 17  1  0
  3 18  1  0
  7 19  1  6
  8 20  1  0
  9 21  1  0
  9 22  1  0
 10 23  1  0
 10 24  1  0
 12 25  1  0
 13 26  1  0
M  CHG  1   4   1
M  END
$$$$

     RDKit          3D

 26 27  0  0  0  0  0  0  0  0999 V2000
    3.7596    1.4473    0.7578 O   0  0  0  0  0  0  0  0  0  0  0  0
    4.0593    0.1551    0.3870 C   0  0  0  0  0  0  0  0  0  0  0  0
    2.9249   -0.8155    0.6769 C   0  0  0  0  0  0  0  0  0  0  0  0
    1.7453   -0.4234   -0.0392 N   0  0  0  0  0  4  0  0  0  0  0  0
    0.6019   -0.1110    0.4656 C   0  0  0  0  0  0  0  0  0  0  0  0
   -0.3457    0.0909   -0.4061 C   0  0  0  0  0  0  0  0  0  0  0  0
   -1.7787    0.3470   -0.2507 C   0  0  2  0  0  0  0  0  0  0  0  0
   -2.2293    0.3836    1.1117 N   0  0  0  0  0  0  0  0  0  0  0  0
   -3.6672    0.4914    0.9046 C   0  0  0  0  0  0  0  0  0  0  0  0
   -3.8475   -0.3921   -0.3214 C   0  0  0  0  0  0  0  0  0  0  0  0
   -2.5731   -0.6659   -0.7926 O   0  0  0  0  0  0  0  0  0  0  0  0
    0.2990    0.0158   -1.6731 N   0  0  0  0  0  0  0  0  0  0  0  0
    1.6527   -0.3174   -1.4313 N   0  0  0  0  0  0  0  0  0  0  0  0
    2.7903    1.5888    0.8683 H   0  0  0  0  0  0  0  0  0  0  0  0
    4.9805   -0.1795    0.9114 H   0  0  0  0  0  0  0  0  0  0  0  0
    4.3254    0.1371   -0.7049 H   0  0  0  0  0  0  0  0  0  0  0  0
    3.2796   -1.8217    0.3663 H   0  0  0  0  0  0  0  0  0  0  0  0
    2.7674   -0.7884    1.7711 H   0  0  0  0  0  0  0  0  0  0  0  0
   -2.1064    1.3097   -0.7306 H   0  0  0  0  0  0  0  0  0  0  0  0
   -2.0777   -0.5529    1.5719 H   0  0  0  0  0  0  0  0  0  0  0  0
   -4.2420    0.1173    1.7701 H   0  0  0  0  0  0  0  0  0  0  0  0
   -3.8841    1.5253    0.6327 H   0  0  0  0  0  0  0  0  0  0  0  0
   -4.3389   -1.3503    0.0077 H   0  0  0  0  0  0  0  0  0  0  0  0
   -4.4213    0.0978   -1.1189 H   0  0  0  0  0  0  0  0  0  0  0  0
   -0.0883    0.1650   -2.6326 H   0  0  0  0  0  0  0  0  0  0  0  0
    2.4143   -0.4540   -2.1364 H   0  0  0  0  0  0  0  0  0  0  0  0
  1  2  1  0
  2  3  1  0
  3  4  1  0
  4  5  2  0
  5  6  2  0
  6  7  1  0
  7  8  1  0
  8  9  1  0
  9 10  1  0
 10 11  1  0
  6 12  1  0
 12 13  1  0
 13  4  1  0
 11  7  1  0
  1 14  1  0
  2 15  1  0
  2 16  1  0
  3 17  1  0
  3 18  1  0
  7 19  1  6
  8 20  1  0
  9 21  1  0
  9 22  1  0
 10 23  1  0
 10 24  1  0
 12 25  1  0
 13 26  1  0
M  CHG  1   4   1
M  END
$$$$

     RDKit          3D

 26 27  0  0  0  0  0  0  0  0999 V2000
    3.8341    1.3578   -0.4240 O   0  0  0  0  0  0  0  0  0  0  0  0
    3.8939   -0.0002   -0.7293 C   0  0  0  0  0  0  0  0  0  0  0  0
    3.1389   -0.7810    0.3282 C   0  0  0  0  0  0  0  0  0  0  0  0
    1.7572   -0.3477    0.3527 N   0  0  0  0  0  4  0  0  0  0  0  0
    0.7056   -1.0622    0.1399 C   0  0  0  0  0  0  0  0  0  0  0  0
   -0.4291   -0.4414    0.2705 C   0  0  0  0  0  0  0  0  0  0  0  0
   -1.8200   -0.9493    0.1525 C   0  0  2  0  0  0  0  0  0  0  0  0
   -2.4592   -0.2131   -0.9078 N   0  0  0  0  0  0  0  0  0  0  0  0
   -3.7368    0.2313   -0.3989 C   0  0  0  0  0  0  0  0  0  0  0  0
   -3.7619   -0.2734    1.0180 C   0  0  0  0  0  0  0  0  0  0  0  0
   -2.4747   -0.6855    1.3256 O   0  0  0  0  0  0  0  0  0  0  0  0
   -0.1010    0.9068    0.5675 N   0  0  0  0  0  0  0  0  0  0  0  0
    1.2955    0.9455    0.6155 N   0  0  0  0  0  0  0  0  0  0  0  0
    4.3868    1.5969    0.3526 H   0  0  0  0  0  0  0  0  0  0  0  0
    4.9631   -0.3191   -0.7179 H   0  0  0  0  0  0  0  0  0  0  0  0
    3.4489   -0.1591   -1.7211 H   0  0  0  0  0  0  0  0  0  0  0  0
    3.1583   -1.8631    0.0806 H   0  0  0  0  0  0  0  0  0  0  0  0
    3.6182   -0.5898    1.3170 H   0  0  0  0  0  0  0  0  0  0  0  0
   -1.8027   -2.0253   -0.1160 H   0  0  0  0  0  0  0  0  0  0  0  0
   -1.9014    0.6328   -1.1992 H   0  0  0  0  0  0  0  0  0  0  0  0
   -3.7891    1.3562   -0.3797 H   0  0  0  0  0  0  0  0  0  0  0  0
   -4.5695   -0.1600   -1.0049 H   0  0  0  0  0  0  0  0  0  0  0  0
   -4.4387   -1.1619    1.0574 H   0  0  0  0  0  0  0  0  0  0  0  0
   -4.0574    0.5065    1.7539 H   0  0  0  0  0  0  0  0  0  0  0  0
   -0.7528    1.7212    0.7227 H   0  0  0  0  0  0  0  0  0  0  0  0
    1.8936    1.7771    0.8100 H   0  0  0  0  0  0  0  0  0  0  0  0
  1  2  1  0
  2  3  1  0
  3  4  1  0
  4  5  2  0
  5  6  2  0
  6  7  1  0
  7  8  1  0
  8  9  1  0
  9 10  1  0
 10 11  1  0
  6 12  1  0
 12 13  1  0
 13  4  1  0
 11  7  1  0
  1 14  1  0
  2 15  1  0
  2 16  1  0
  3 17  1  0
  3 18  1  0
  7 19  1  6
  8 20  1  0
  9 21  1  0
  9 22  1  0
 10 23  1  0
 10 24  1  0
 12 25  1  0
 13 26  1  0
M  CHG  1   4   1
M  END
$$$$

     RDKit          3D

 26 27  0  0  0  0  0  0  0  0999 V2000
    4.0818    0.6286    1.0105 O   0  0  0  0  0  0  0  0  0  0  0  0
    3.9600    0.1096   -0.2643 C   0  0  0  0  0  0  0  0  0  0  0  0
    2.9898   -1.0677   -0.2907 C   0  0  0  0  0  0  0  0  0  0  0  0
    1.6859   -0.6501    0.1491 N   0  0  0  0  0  4  0  0  0  0  0  0
    0.5685   -0.6893   -0.4943 C   0  0  0  0  0  0  0  0  0  0  0  0
   -0.4106   -0.0376    0.0725 C   0  0  0  0  0  0  0  0  0  0  0  0
   -1.7422    0.3314   -0.4182 C   0  0  2  0  0  0  0  0  0  0  0  0
   -2.8201   -0.2323    0.3957 N   0  0  0  0  0  0  0  0  0  0  0  0
   -3.9797    0.1323   -0.4121 C   0  0  0  0  0  0  0  0  0  0  0  0
   -3.3799    0.2463   -1.8167 C   0  0  0  0  0  0  0  0  0  0  0  0
   -2.0457   -0.1502   -1.6640 O   0  0  0  0  0  0  0  0  0  0  0  0
    0.0708    0.2890    1.3714 N   0  0  0  0  0  0  0  0  0  0  0  0
    1.4199   -0.1084    1.4118 N   0  0  0  0  0  0  0  0  0  0  0  0
    4.1111    1.6019    0.9669 H   0  0  0  0  0  0  0  0  0  0  0  0
    3.5266    0.8825   -0.9318 H   0  0  0  0  0  0  0  0  0  0  0  0
    4.9636   -0.2012   -0.5982 H   0  0  0  0  0  0  0  0  0  0  0  0
    3.4121   -1.8304    0.4168 H   0  0  0  0  0  0  0  0  0  0  0  0
    2.9785   -1.5484   -1.2851 H   0  0  0  0  0  0  0  0  0  0  0  0
   -1.9112    1.4389   -0.4021 H   0  0  0  0  0  0  0  0  0  0  0  0
   -2.7274   -1.2690    0.4884 H   0  0  0  0  0  0  0  0  0  0  0  0
   -4.3119    1.1216   -0.0356 H   0  0  0  0  0  0  0  0  0  0  0  0
   -4.7647   -0.6197   -0.3551 H   0  0  0  0  0  0  0  0  0  0  0  0
   -3.4321    1.3121   -2.1454 H   0  0  0  0  0  0  0  0  0  0  0  0
   -3.9292   -0.3944   -2.5347 H   0  0  0  0  0  0  0  0  0  0  0  0
   -0.4144    0.7316    2.1786 H   0  0  0  0  0  0  0  0  0  0  0  0
    2.1007   -0.0274    2.2041 H   0  0  0  0  0  0  0  0  0  0  0  0
  1  2  1  0
  2  3  1  0
  3  4  1  0
  4  5  2  0
  5  6  2  0
  6  7  1  0
  7  8  1  0
  8  9  1  0
  9 10  1  0
 10 11  1  0
  6 12  1  0
 12 13  1  0
 13  4  1  0
 11  7  1  0
  1 14  1  0
  2 15  1  0
  2 16  1  0
  3 17  1  0
  3 18  1  0
  7 19  1  6
  8 20  1  0
  9 21  1  0
  9 22  1  0
 10 23  1  0
 10 24  1  0
 12 25  1  0
 13 26  1  0
M  CHG  1   4   1
M  END
$$$$

     RDKit          3D

 26 27  0  0  0  0  0  0  0  0999 V2000
    3.8499    0.8604   -0.9641 O   0  0  0  0  0  0  0  0  0  0  0  0
    4.0404   -0.1379   -0.0234 C   0  0  0  0  0  0  0  0  0  0  0  0
    2.8833   -0.1951    0.9829 C   0  0  0  0  0  0  0  0  0  0  0  0
    1.6372   -0.4580    0.3096 N   0  0  0  0  0  4  0  0  0  0  0  0
    0.5706    0.2663    0.2764 C   0  0  0  0  0  0  0  0  0  0  0  0
   -0.4521   -0.2841   -0.3085 C   0  0  0  0  0  0  0  0  0  0  0  0
   -1.8465    0.1549   -0.4408 C   0  0  2  0  0  0  0  0  0  0  0  0
   -2.1024    1.4301    0.2034 N   0  0  0  0  0  0  0  0  0  0  0  0
   -3.5418    1.5107    0.0183 C   0  0  0  0  0  0  0  0  0  0  0  0
   -3.9401    0.0553    0.2028 C   0  0  0  0  0  0  0  0  0  0  0  0
   -2.7505   -0.6704    0.2155 O   0  0  0  0  0  0  0  0  0  0  0  0
    0.0419   -1.5015   -0.8554 N   0  0  0  0  0  0  0  0  0  0  0  0
    1.3764   -1.5904   -0.4475 N   0  0  0  0  0  0  0  0  0  0  0  0
    4.6576    1.4499   -0.9931 H   0  0  0  0  0  0  0  0  0  0  0  0
    4.0389   -1.1366   -0.5503 H   0  0  0  0  0  0  0  0  0  0  0  0
    5.0083   -0.0785    0.4887 H   0  0  0  0  0  0  0  0  0  0  0  0
    3.1238   -1.0460    1.6599 H   0  0  0  0  0  0  0  0  0  0  0  0
    2.8616    0.7315    1.5784 H   0  0  0  0  0  0  0  0  0  0  0  0
   -2.1516    0.2341   -1.4844 H   0  0  0  0  0  0  0  0  0  0  0  0
   -1.9528    1.2635    1.2342 H   0  0  0  0  0  0  0  0  0  0  0  0
   -4.0228    2.1666    0.7678 H   0  0  0  0  0  0  0  0  0  0  0  0
   -3.7483    1.8194   -1.0194 H   0  0  0  0  0  0  0  0  0  0  0  0
   -4.6306   -0.2875   -0.6066 H   0  0  0  0  0  0  0  0  0  0  0  0
   -4.4491   -0.0068    1.1931 H   0  0  0  0  0  0  0  0  0  0  0  0
   -0.5003   -2.1777   -1.4408 H   0  0  0  0  0  0  0  0  0  0  0  0
    1.9991   -2.3722   -0.6934 H   0  0  0  0  0  0  0  0  0  0  0  0
  1  2  1  0
  2  3  1  0
  3  4  1  0
  4  5  2  0
  5  6  2  0
  6  7  1  0
  7  8  1  0
  8  9  1  0
  9 10  1  0
 10 11  1  0
  6 12  1  0
 12 13  1  0
 13  4  1  0
 11  7  1  0
  1 14  1  0
  2 15  1  0
  2 16  1  0
  3 17  1  0
  3 18  1  0
  7 19  1  6
  8 20  1  0
  9 21  1  0
  9 22  1  0
 10 23  1  0
 10 24  1  0
 12 25  1  0
 13 26  1  0
M  CHG  1   4   1
M  END
$$$$

     RDKit          3D

 26 27  0  0  0  0  0  0  0  0999 V2000
    5.3094    0.2966   -0.1012 O   0  0  0  0  0  0  0  0  0  0  0  0
    4.0947   -0.2977    0.2656 C   0  0  0  0  0  0  0  0  0  0  0  0
    3.0262    0.3443   -0.5902 C   0  0  0  0  0  0  0  0  0  0  0  0
    1.7071   -0.1917   -0.3026 N   0  0  0  0  0  4  0  0  0  0  0  0
    0.6982    0.4627    0.1113 C   0  0  0  0  0  0  0  0  0  0  0  0
   -0.4579   -0.1269   -0.0107 C   0  0  0  0  0  0  0  0  0  0  0  0
   -1.7733    0.5458    0.0677 C   0  0  2  0  0  0  0  0  0  0  0  0
   -2.5924    0.0319    1.1330 N   0  0  0  0  0  0  0  0  0  0  0  0
   -3.9496   -0.0346    0.5790 C   0  0  0  0  0  0  0  0  0  0  0  0
   -3.7873    0.7821   -0.6794 C   0  0  0  0  0  0  0  0  0  0  0  0
   -2.5175    0.3432   -1.1178 O   0  0  0  0  0  0  0  0  0  0  0  0
   -0.1500   -1.4979   -0.2252 N   0  0  0  0  0  0  0  0  0  0  0  0
    1.2547   -1.5114   -0.4109 N   0  0  0  0  0  0  0  0  0  0  0  0
    5.1244    1.2324   -0.4310 H   0  0  0  0  0  0  0  0  0  0  0  0
    3.8512   -0.0804    1.3301 H   0  0  0  0  0  0  0  0  0  0  0  0
    4.0777   -1.3846    0.0494 H   0  0  0  0  0  0  0  0  0  0  0  0
    3.0258    1.4182   -0.4035 H   0  0  0  0  0  0  0  0  0  0  0  0
    3.3062    0.1982   -1.6675 H   0  0  0  0  0  0  0  0  0  0  0  0
   -1.6472    1.6451    0.1422 H   0  0  0  0  0  0  0  0  0  0  0  0
   -2.5860    0.7109    1.9325 H   0  0  0  0  0  0  0  0  0  0  0  0
   -4.6954    0.3541    1.2703 H   0  0  0  0  0  0  0  0  0  0  0  0
   -4.1126   -1.0807    0.2767 H   0  0  0  0  0  0  0  0  0  0  0  0
   -4.5570    0.5990   -1.4314 H   0  0  0  0  0  0  0  0  0  0  0  0
   -3.6552    1.8625   -0.4370 H   0  0  0  0  0  0  0  0  0  0  0  0
   -0.8260   -2.2765   -0.2355 H   0  0  0  0  0  0  0  0  0  0  0  0
    1.8317   -2.3448   -0.5924 H   0  0  0  0  0  0  0  0  0  0  0  0
  1  2  1  0
  2  3  1  0
  3  4  1  0
  4  5  2  0
  5  6  2  0
  6  7  1  0
  7  8  1  0
  8  9  1  0
  9 10  1  0
 10 11  1  0
  6 12  1  0
 12 13  1  0
 13  4  1  0
 11  7  1  0
  1 14  1  0
  2 15  1  0
  2 16  1  0
  3 17  1  0
  3 18  1  0
  7 19  1  1
  8 20  1  0
  9 21  1  0
  9 22  1  0
 10 23  1  0
 10 24  1  0
 12 25  1  0
 13 26  1  0
M  CHG  1   4   1
M  END
$$$$
