
     RDKit          3D

 21 22  0  0  0  0  0  0  0  0999 V2000
    3.3494    0.6148    0.3398 C   0  0  0  0  0  0  0  0  0  0  0  0
    2.0529    0.1376    0.7525 N   0  0  0  0  0  0  0  0  0  0  0  0
    1.6100   -0.0959    2.0789 N   0  0  0  0  0  0  0  0  0  0  0  0
    0.3959   -0.5206    2.0422 C   0  0  0  0  0  0  0  0  0  0  0  0
   -0.1220   -0.6280    0.8530 C   0  0  0  0  0  0  0  0  0  0  0  0
   -1.4413   -1.0601    0.4171 C   0  0  0  0  0  0  0  0  0  0  0  0
   -1.9769   -2.2987    0.4175 N   0  0  0  0  0  0  0  0  0  0  0  0
   -3.2092   -2.2757   -0.0608 N   0  0  0  0  0  0  0  0  0  0  0  0
   -3.4508   -1.0097   -0.3649 N   0  0  0  0  0  0  0  0  0  0  0  0
   -2.3981   -0.2612   -0.0844 N   0  0  0  0  0  0  0  0  0  0  0  0
   -2.3636    1.1681   -0.3094 C   0  0  0  0  0  0  0  0  0  0  0  0
    0.9351   -0.2048   -0.0563 C   0  0  0  0  0  3  0  0  0  0  0  0
    0.8582   -0.1455   -1.5056 C   0  0  0  0  0  0  0  0  0  0  0  0
    1.8788    0.2498   -2.1599 O   0  0  0  0  0  0  0  0  0  0  0  0
    3.6368    0.1838   -0.6212 H   0  0  0  0  0  0  0  0  0  0  0  0
    3.3679    1.7041    0.3894 H   0  0  0  0  0  0  0  0  0  0  0  0
    4.0743    0.2545    1.1274 H   0  0  0  0  0  0  0  0  0  0  0  0
   -3.0581    1.6774    0.3899 H   0  0  0  0  0  0  0  0  0  0  0  0
   -2.8016    1.3346   -1.3320 H   0  0  0  0  0  0  0  0  0  0  0  0
   -1.3461    1.5838   -0.2320 H   0  0  0  0  0  0  0  0  0  0  0  0
    0.0083   -0.4082   -2.0810 H   0  0  0  0  0  0  0  0  0  0  0  0
  1  2  1  0
  2  3  1  0
  3  4  2  0
  4  5  2  0
  5  6  1  0
  6  7  2  0
  7  8  1  0
  8  9  2  0
  9 10  1  0
 10 11  1  0
  5 12  1  0
 12 13  1  0
 13 14  2  0
 12  2  1  0
 10  6  1  0
  1 15  1  0
  1 16  1  0
  1 17  1  0
 11 18  1  0
 11 19  1  0
 11 20  1  0
 13 21  1  0
M  CHG  1  12  -1
M  END
$$$$

     RDKit          3D

 21 22  0  0  0  0  0  0  0  0999 V2000
    3.3095   -1.1763    0.3079 C   0  0  0  0  0  0  0  0  0  0  0  0
    1.9084   -0.8875    0.4751 N   0  0  0  0  0  0  0  0  0  0  0  0
    0.9489   -1.6431    1.1603 N   0  0  0  0  0  0  0  0  0  0  0  0
   -0.1656   -1.0260    1.1250 C   0  0  0  0  0  0  0  0  0  0  0  0
   -0.1929    0.0658    0.4145 C   0  0  0  0  0  0  0  0  0  0  0  0
   -1.3122    0.9486    0.0980 C   0  0  0  0  0  0  0  0  0  0  0  0
   -1.3250    2.2847   -0.0274 N   0  0  0  0  0  0  0  0  0  0  0  0
   -2.5677    2.6303   -0.3206 N   0  0  0  0  0  0  0  0  0  0  0  0
   -3.3124    1.5386   -0.3769 N   0  0  0  0  0  0  0  0  0  0  0  0
   -2.5637    0.5055   -0.1245 N   0  0  0  0  0  0  0  0  0  0  0  0
   -3.0402   -0.8595   -0.0994 C   0  0  0  0  0  0  0  0  0  0  0  0
    1.1854    0.2481   -0.0291 C   0  0  0  0  0  3  0  0  0  0  0  0
    1.7264    1.3294   -0.8077 C   0  0  0  0  0  0  0  0  0  0  0  0
    2.9314    1.3470   -1.1107 O   0  0  0  0  0  0  0  0  0  0  0  0
    3.5710   -2.0144    0.9898 H   0  0  0  0  0  0  0  0  0  0  0  0
    3.8738   -0.2539    0.5278 H   0  0  0  0  0  0  0  0  0  0  0  0
    3.4835   -1.4725   -0.7253 H   0  0  0  0  0  0  0  0  0  0  0  0
   -2.5501   -1.4732    0.6811 H   0  0  0  0  0  0  0  0  0  0  0  0
   -2.8318   -1.3343   -1.0789 H   0  0  0  0  0  0  0  0  0  0  0  0
   -4.1400   -0.8873    0.0469 H   0  0  0  0  0  0  0  0  0  0  0  0
    1.0634    2.1302   -1.1261 H   0  0  0  0  0  0  0  0  0  0  0  0
  1  2  1  0
  2  3  1  0
  3  4  2  0
  4  5  2  0
  5  6  1  0
  6  7  2  0
  7  8  1  0
  8  9  2  0
  9 10  1  0
 10 11  1  0
  5 12  1  0
 12 13  1  0
 13 14  2  0
 12  2  1  0
 10  6  1  0
  1 15  1  0
  1 16  1  0
  1 17  1  0
 11 18  1  0
 11 19  1  0
 11 20  1  0
 13 21  1  0
M  CHG  1  12  -1
M  END
$$$$

     RDKit          3D

 21 22  0  0  0  0  0  0  0  0999 V2000
   -3.4198   -0.3279    0.8325 C   0  0  0  0  0  0  0  0  0  0  0  0
   -1.9903   -0.2286    0.8644 N   0  0  0  0  0  0  0  0  0  0  0  0
   -1.1657   -0.6722    1.9063 N   0  0  0  0  0  0  0  0  0  0  0  0
    0.0576   -0.4635    1.5551 C   0  0  0  0  0  0  0  0  0  0  0  0
    0.2197    0.1577    0.4384 C   0  0  0  0  0  0  0  0  0  0  0  0
    1.4309    0.6410   -0.2259 C   0  0  0  0  0  0  0  0  0  0  0  0
    1.5451    1.8355   -0.8044 N   0  0  0  0  0  0  0  0  0  0  0  0
    2.7481    1.9539   -1.3017 N   0  0  0  0  0  0  0  0  0  0  0  0
    3.3864    0.8324   -1.0340 N   0  0  0  0  0  0  0  0  0  0  0  0
    2.6035    0.0160   -0.3783 N   0  0  0  0  0  0  0  0  0  0  0  0
    2.8695   -1.3265    0.1261 C   0  0  0  0  0  0  0  0  0  0  0  0
   -1.1213    0.3212   -0.1162 C   0  0  0  0  0  3  0  0  0  0  0  0
   -1.4949    0.9142   -1.3892 C   0  0  0  0  0  0  0  0  0  0  0  0
   -0.6885    1.3802   -2.2090 O   0  0  0  0  0  0  0  0  0  0  0  0
   -3.8081    0.4260    1.5771 H   0  0  0  0  0  0  0  0  0  0  0  0
   -3.8318   -0.1487   -0.1633 H   0  0  0  0  0  0  0  0  0  0  0  0
   -3.6857   -1.3516    1.1888 H   0  0  0  0  0  0  0  0  0  0  0  0
    2.0266   -2.0146   -0.0430 H   0  0  0  0  0  0  0  0  0  0  0  0
    3.0842   -1.2197    1.2253 H   0  0  0  0  0  0  0  0  0  0  0  0
    3.7780   -1.6819   -0.3997 H   0  0  0  0  0  0  0  0  0  0  0  0
   -2.5436    0.9572   -1.6494 H   0  0  0  0  0  0  0  0  0  0  0  0
  1  2  1  0
  2  3  1  0
  3  4  2  0
  4  5  2  0
  5  6  1  0
  6  7  2  0
  7  8  1  0
  8  9  2  0
  9 10  1  0
 10 11  1  0
  5 12  1  0
 12 13  1  0
 13 14  2  0
 12  2  1  0
 10  6  1  0
  1 15  1  0
  1 16  1  0
  1 17  1  0
 11 18  1  0
 11 19  1  0
 11 20  1  0
 13 21  1  0
M  CHG  1  12  -1
M  END
$$$$

     RDKit          3D

 21 22  0  0  0  0  0  0  0  0999 V2000
    3.4444    0.1483   -0.7450 C   0  0  0  0  0  0  0  0  0  0  0  0
    2.0127    0.0361   -0.9116 N   0  0  0  0  0  0  0  0  0  0  0  0
    1.2311    0.2109   -2.0644 N   0  0  0  0  0  0  0  0  0  0  0  0
   -0.0120    0.2128   -1.7192 C   0  0  0  0  0  0  0  0  0  0  0  0
   -0.2345   -0.2857   -0.5172 C   0  0  0  0  0  0  0  0  0  0  0  0
   -1.4792   -0.7343    0.0700 C   0  0  0  0  0  0  0  0  0  0  0  0
   -1.8028   -1.9678    0.5291 N   0  0  0  0  0  0  0  0  0  0  0  0
   -3.0436   -1.9528    0.9876 N   0  0  0  0  0  0  0  0  0  0  0  0
   -3.5236   -0.7359    0.8326 N   0  0  0  0  0  0  0  0  0  0  0  0
   -2.5785    0.0139    0.2745 N   0  0  0  0  0  0  0  0  0  0  0  0
   -2.6966    1.4137   -0.0656 C   0  0  0  0  0  0  0  0  0  0  0  0
    1.0833   -0.2891    0.1157 C   0  0  0  0  0  3  0  0  0  0  0  0
    1.4033   -0.5659    1.5113 C   0  0  0  0  0  0  0  0  0  0  0  0
    0.5002   -0.8433    2.3358 O   0  0  0  0  0  0  0  0  0  0  0  0
    3.8483   -0.6776   -0.0984 H   0  0  0  0  0  0  0  0  0  0  0  0
    3.6486    1.1034   -0.2213 H   0  0  0  0  0  0  0  0  0  0  0  0
    3.9897    0.0614   -1.7029 H   0  0  0  0  0  0  0  0  0  0  0  0
   -2.1005    2.0324    0.6480 H   0  0  0  0  0  0  0  0  0  0  0  0
   -3.7665    1.7205   -0.0092 H   0  0  0  0  0  0  0  0  0  0  0  0
   -2.3559    1.6290   -1.0821 H   0  0  0  0  0  0  0  0  0  0  0  0
    2.4321   -0.5301    1.8321 H   0  0  0  0  0  0  0  0  0  0  0  0
  1  2  1  0
  2  3  1  0
  3  4  2  0
  4  5  2  0
  5  6  1  0
  6  7  2  0
  7  8  1  0
  8  9  2  0
  9 10  1  0
 10 11  1  0
  5 12  1  0
 12 13  1  0
 13 14  2  0
 12  2  1  0
 10  6  1  0
  1 15  1  0
  1 16  1  0
  1 17  1  0
 11 18  1  0
 11 19  1  0
 11 20  1  0
 13 21  1  0
M  CHG  1  12  -1
M  END
$$$$

     RDKit          3D

 21 22  0  0  0  0  0  0  0  0999 V2000
   -3.3367    0.7514    0.3737 C   0  0  0  0  0  0  0  0  0  0  0  0
   -2.0056    0.3190    0.6972 N   0  0  0  0  0  0  0  0  0  0  0  0
   -1.4299    0.3618    1.9864 N   0  0  0  0  0  0  0  0  0  0  0  0
   -0.2577   -0.1037    1.8639 C   0  0  0  0  0  0  0  0  0  0  0  0
    0.1294   -0.4831    0.6726 C   0  0  0  0  0  0  0  0  0  0  0  0
    1.3919   -1.0415    0.2225 C   0  0  0  0  0  0  0  0  0  0  0  0
    1.7193   -2.3234   -0.0081 N   0  0  0  0  0  0  0  0  0  0  0  0
    2.9854   -2.3998   -0.4110 N   0  0  0  0  0  0  0  0  0  0  0  0
    3.4674   -1.1869   -0.4400 N   0  0  0  0  0  0  0  0  0  0  0  0
    2.5023   -0.3349   -0.0534 N   0  0  0  0  0  0  0  0  0  0  0  0
    2.6359    1.0970    0.0483 C   0  0  0  0  0  0  0  0  0  0  0  0
   -1.0240   -0.2220   -0.1758 C   0  0  0  0  0  3  0  0  0  0  0  0
   -1.1407   -0.4624   -1.5962 C   0  0  0  0  0  0  0  0  0  0  0  0
   -2.1860   -0.2030   -2.2508 O   0  0  0  0  0  0  0  0  0  0  0  0
   -4.0900    0.0050    0.6874 H   0  0  0  0  0  0  0  0  0  0  0  0
   -3.5302    1.6694    1.0002 H   0  0  0  0  0  0  0  0  0  0  0  0
   -3.4407    1.0448   -0.6907 H   0  0  0  0  0  0  0  0  0  0  0  0
    2.2098    1.5695   -0.8737 H   0  0  0  0  0  0  0  0  0  0  0  0
    3.6819    1.3928    0.1837 H   0  0  0  0  0  0  0  0  0  0  0  0
    2.0429    1.4340    0.9448 H   0  0  0  0  0  0  0  0  0  0  0  0
   -0.3248   -0.8840   -2.1810 H   0  0  0  0  0  0  0  0  0  0  0  0
  1  2  1  0
  2  3  1  0
  3  4  2  0
  4  5  2  0
  5  6  1  0
  6  7  2  0
  7  8  1  0
  8  9  2  0
  9 10  1  0
 10 11  1  0
  5 12  1  0
 12 13  1  0
 13 14  2  0
 12  2  1  0
 10  6  1  0
  1 15  1  0
  1 16  1  0
  1 17  1  0
 11 18  1  0
 11 19  1  0
 11 20  1  0
 13 21  1  0
M  CHG  1  12  -1
M  END
$$$$

     RDKit          3D

 21 22  0  0  0  0  0  0  0  0999 V2000
   -3.3973   -0.2854    0.5967 C   0  0  0  0  0  0  0  0  0  0  0  0
   -2.0808    0.2957    0.7783 N   0  0  0  0  0  0  0  0  0  0  0  0
   -1.5882    1.1031    1.8075 N   0  0  0  0  0  0  0  0  0  0  0  0
   -0.3439    1.3622    1.5886 C   0  0  0  0  0  0  0  0  0  0  0  0
    0.1303    0.8946    0.4690 C   0  0  0  0  0  0  0  0  0  0  0  0
    1.4607    1.0549   -0.1208 C   0  0  0  0  0  0  0  0  0  0  0  0
    1.9096    2.1585   -0.7249 N   0  0  0  0  0  0  0  0  0  0  0  0
    3.1283    1.9419   -1.1248 N   0  0  0  0  0  0  0  0  0  0  0  0
    3.4842    0.7242   -0.7960 N   0  0  0  0  0  0  0  0  0  0  0  0
    2.4653    0.1639   -0.1755 N   0  0  0  0  0  0  0  0  0  0  0  0
    2.4517   -1.1782    0.3480 C   0  0  0  0  0  0  0  0  0  0  0  0
   -0.9715    0.1397   -0.1205 C   0  0  0  0  0  3  0  0  0  0  0  0
   -0.9680   -0.6107   -1.3450 C   0  0  0  0  0  0  0  0  0  0  0  0
    0.0806   -0.6652   -2.0432 O   0  0  0  0  0  0  0  0  0  0  0  0
   -3.6871   -0.3570   -0.4687 H   0  0  0  0  0  0  0  0  0  0  0  0
   -3.4865   -1.2706    1.0929 H   0  0  0  0  0  0  0  0  0  0  0  0
   -4.1841    0.3553    1.0913 H   0  0  0  0  0  0  0  0  0  0  0  0
    1.4232   -1.5649    0.5058 H   0  0  0  0  0  0  0  0  0  0  0  0
    3.1014   -1.2899    1.2374 H   0  0  0  0  0  0  0  0  0  0  0  0
    2.9155   -1.8477   -0.4341 H   0  0  0  0  0  0  0  0  0  0  0  0
   -1.8436   -1.1243   -1.6728 H   0  0  0  0  0  0  0  0  0  0  0  0
  1  2  1  0
  2  3  1  0
  3  4  2  0
  4  5  2  0
  5  6  1  0
  6  7  2  0
  7  8  1  0
  8  9  2  0
  9 10  1  0
 10 11  1  0
  5 12  1  0
 12 13  1  0
 13 14  2  0
 12  2  1  0
 10  6  1  0
  1 15  1  0
  1 16  1  0
  1 17  1  0
 11 18  1  0
 11 19  1  0
 11 20  1  0
 13 21  1  0
M  CHG  1  12  -1
M  END
$$$$

     RDKit          3D

 21 22  0  0  0  0  0  0  0  0999 V2000
   -3.3409    0.2398   -0.8211 C   0  0  0  0  0  0  0  0  0  0  0  0
   -2.0863   -0.4626   -0.7494 N   0  0  0  0  0  0  0  0  0  0  0  0
   -1.6492   -1.6467   -1.3438 N   0  0  0  0  0  0  0  0  0  0  0  0
   -0.4332   -1.8854   -0.9814 C   0  0  0  0  0  0  0  0  0  0  0  0
    0.0819   -0.9995   -0.1791 C   0  0  0  0  0  0  0  0  0  0  0  0
    1.4152   -0.9768    0.4029 C   0  0  0  0  0  0  0  0  0  0  0  0
    1.8061   -1.7847    1.4149 N   0  0  0  0  0  0  0  0  0  0  0  0
    3.0673   -1.5351    1.7298 N   0  0  0  0  0  0  0  0  0  0  0  0
    3.4569   -0.5716    0.9116 N   0  0  0  0  0  0  0  0  0  0  0  0
    2.4815   -0.2265    0.1122 N   0  0  0  0  0  0  0  0  0  0  0  0
    2.4824    0.7835   -0.9305 C   0  0  0  0  0  0  0  0  0  0  0  0
   -0.9685   -0.0102    0.0254 C   0  0  0  0  0  3  0  0  0  0  0  0
   -0.8921    1.1694    0.8357 C   0  0  0  0  0  0  0  0  0  0  0  0
   -1.8808    1.9347    0.9187 O   0  0  0  0  0  0  0  0  0  0  0  0
   -3.2994    1.1177   -1.5135 H   0  0  0  0  0  0  0  0  0  0  0  0
   -3.6667    0.6228    0.1748 H   0  0  0  0  0  0  0  0  0  0  0  0
   -4.1673   -0.4082   -1.1774 H   0  0  0  0  0  0  0  0  0  0  0  0
    2.7007    0.3463   -1.9210 H   0  0  0  0  0  0  0  0  0  0  0  0
    1.5664    1.3926   -0.9403 H   0  0  0  0  0  0  0  0  0  0  0  0
    3.3288    1.4753   -0.7010 H   0  0  0  0  0  0  0  0  0  0  0  0
   -0.0027    1.4253    1.3835 H   0  0  0  0  0  0  0  0  0  0  0  0
  1  2  1  0
  2  3  1  0
  3  4  2  0
  4  5  2  0
  5  6  1  0
  6  7  2  0
  7  8  1  0
  8  9  2  0
  9 10  1  0
 10 11  1  0
  5 12  1  0
 12 13  1  0
 13 14  2  0
 12  2  1  0
 10  6  1  0
  1 15  1  0
  1 16  1  0
  1 17  1  0
 11 18  1  0
 11 19  1  0
 11 20  1  0
 13 21  1  0
M  CHG  1  12  -1
M  END
$$$$

     RDKit          3D

 21 22  0  0  0  0  0  0  0  0999 V2000
    3.4253   -0.2744    0.3469 C   0  0  0  0  0  0  0  0  0  0  0  0
    2.1094    0.2681    0.6045 N   0  0  0  0  0  0  0  0  0  0  0  0
    1.6731    1.0051    1.7089 N   0  0  0  0  0  0  0  0  0  0  0  0
    0.4312    1.2930    1.5444 C   0  0  0  0  0  0  0  0  0  0  0  0
   -0.1068    0.8563    0.4428 C   0  0  0  0  0  0  0  0  0  0  0  0
   -1.4591    0.9904   -0.0692 C   0  0  0  0  0  0  0  0  0  0  0  0
   -1.9176    2.0298   -0.7869 N   0  0  0  0  0  0  0  0  0  0  0  0
   -3.2055    1.8189   -1.0893 N   0  0  0  0  0  0  0  0  0  0  0  0
   -3.5468    0.6551   -0.5629 N   0  0  0  0  0  0  0  0  0  0  0  0
   -2.4779    0.1391    0.0663 N   0  0  0  0  0  0  0  0  0  0  0  0
   -2.4187   -1.1105    0.7695 C   0  0  0  0  0  0  0  0  0  0  0  0
    0.9645    0.1522   -0.2470 C   0  0  0  0  0  3  0  0  0  0  0  0
    0.9035   -0.5224   -1.5150 C   0  0  0  0  0  0  0  0  0  0  0  0
   -0.2070   -0.5300   -2.1491 O   0  0  0  0  0  0  0  0  0  0  0  0
    3.9780   -0.5224    1.2791 H   0  0  0  0  0  0  0  0  0  0  0  0
    4.0502    0.4622   -0.1988 H   0  0  0  0  0  0  0  0  0  0  0  0
    3.3331   -1.2092   -0.2601 H   0  0  0  0  0  0  0  0  0  0  0  0
   -1.4436   -1.6295    0.6696 H   0  0  0  0  0  0  0  0  0  0  0  0
   -3.1817   -1.8348    0.3731 H   0  0  0  0  0  0  0  0  0  0  0  0
   -2.6098   -1.0075    1.8544 H   0  0  0  0  0  0  0  0  0  0  0  0
    1.7061   -1.0294   -1.9941 H   0  0  0  0  0  0  0  0  0  0  0  0
  1  2  1  0
  2  3  1  0
  3  4  2  0
  4  5  2  0
  5  6  1  0
  6  7  2  0
  7  8  1  0
  8  9  2  0
  9 10  1  0
 10 11  1  0
  5 12  1  0
 12 13  1  0
 13 14  2  0
 12  2  1  0
 10  6  1  0
  1 15  1  0
  1 16  1  0
  1 17  1  0
 11 18  1  0
 11 19  1  0
 11 20  1  0
 13 21  1  0
M  CHG  1  12  -1
M  END
$$$$
