
     RDKit          3D

 28 29  0  0  0  0  0  0  0  0999 V2000
   -1.6795   -1.9919   -0.0115 C   0  0  0  0  0  0  0  0  0  0  0  0
   -2.2353   -0.7232   -0.4423 N   0  0  0  0  0  0  0  0  0  0  0  0
   -3.3644   -0.5156   -1.2500 N   0  0  0  0  0  0  0  0  0  0  0  0
   -3.4948    0.8887   -1.3804 N   0  0  0  0  0  0  0  0  0  0  0  0
   -2.6926    1.3865   -0.5004 C   0  0  0  0  0  0  0  0  0  0  0  0
   -1.7417    0.5711   -0.1265 C   0  0  0  0  0  0  0  0  0  0  0  0
   -0.4558    0.9454    0.4825 C   0  0  2  0  0  0  0  0  0  0  0  0
   -0.3965    2.4090    0.6435 N   0  0  0  0  0  0  0  0  0  0  0  0
    0.7310    0.6307   -0.4392 C   0  0  1  0  0  0  0  0  0  0  0  0
    1.9412    1.2475    0.1747 C   0  0  0  0  0  0  0  0  0  0  0  0
    3.1355    0.7068   -0.2722 O   0  0  0  0  0  0  0  0  0  0  0  0
    3.1372   -0.6592   -0.3531 C   0  0  0  0  0  0  0  0  0  0  0  0
    1.8122   -1.2627    0.0881 C   0  0  0  0  0  0  0  0  0  0  0  0
    0.8273   -0.7084   -0.6971 O   0  0  0  0  0  0  0  0  0  0  0  0
   -2.5632   -2.6218    0.2927 H   0  0  0  0  0  0  0  0  0  0  0  0
   -1.0698   -1.8949    0.8966 H   0  0  0  0  0  0  0  0  0  0  0  0
   -1.2015   -2.5541   -0.8320 H   0  0  0  0  0  0  0  0  0  0  0  0
   -3.9722   -1.2521   -1.6620 H   0  0  0  0  0  0  0  0  0  0  0  0
   -0.3204    0.5190    1.4821 H   0  0  0  0  0  0  0  0  0  0  0  0
   -0.3968    2.7899   -0.3285 H   0  0  0  0  0  0  0  0  0  0  0  0
   -1.2208    2.7395    1.2099 H   0  0  0  0  0  0  0  0  0  0  0  0
    0.4759    1.1497   -1.4090 H   0  0  0  0  0  0  0  0  0  0  0  0
    1.9541    2.3311   -0.1446 H   0  0  0  0  0  0  0  0  0  0  0  0
    1.9066    1.2709    1.2863 H   0  0  0  0  0  0  0  0  0  0  0  0
    3.3637   -0.9413   -1.4078 H   0  0  0  0  0  0  0  0  0  0  0  0
    3.9639   -1.1062    0.2663 H   0  0  0  0  0  0  0  0  0  0  0  0
    1.8829   -2.3620   -0.0209 H   0  0  0  0  0  0  0  0  0  0  0  0
    1.6740   -0.9925    1.1450 H   0  0  0  0  0  0  0  0  0  0  0  0
  1  2  1  0
  2  3  1  0
  3  4  1  0
  4  5  2  0
  5  6  2  0
  6  7  1  0
  7  8  1  0
  7  9  1  0
  9 10  1  0
 10 11  1  0
 11 12  1  0
 12 13  1  0
 13 14  1  0
  6  2  1  0
 14  9  1  0
  1 15  1  0
  1 16  1  0
  1 17  1  0
  3 18  1  0
  7 19  1  1
  8 20  1  0
  8 21  1  0
  9 22  1  6
 10 23  1  0
 10 24  1  0
 12 25  1  0
 12 26  1  0
 13 27  1  0
 13 28  1  0
M  END
$$$$

     RDKit          3D

 28 29  0  0  0  0  0  0  0  0999 V2000
    3.4844   -0.6498    0.2053 C   0  0  0  0  0  0  0  0  0  0  0  0
    2.6895    0.4937   -0.1652 N   0  0  0  0  0  0  0  0  0  0  0  0
    3.0798    1.6929   -0.7770 N   0  0  0  0  0  0  0  0  0  0  0  0
    1.9296    2.4761   -0.9203 N   0  0  0  0  0  0  0  0  0  0  0  0
    1.0129    1.8575   -0.2922 C   0  0  0  0  0  0  0  0  0  0  0  0
    1.2683    0.6229    0.0357 C   0  0  0  0  0  0  0  0  0  0  0  0
    0.3733   -0.4618    0.5149 C   0  0  2  0  0  0  0  0  0  0  0  0
    0.4213   -1.6119   -0.3931 N   0  0  0  0  0  0  0  0  0  0  0  0
   -1.0421    0.0584    0.4517 C   0  0  1  0  0  0  0  0  0  0  0  0
   -1.3097    0.5345   -0.9620 C   0  0  0  0  0  0  0  0  0  0  0  0
   -2.3414   -0.1850   -1.5589 O   0  0  0  0  0  0  0  0  0  0  0  0
   -3.4915   -0.2799   -0.8277 C   0  0  0  0  0  0  0  0  0  0  0  0
   -3.2179   -0.2817    0.6487 C   0  0  0  0  0  0  0  0  0  0  0  0
   -1.9793   -0.8888    0.8519 O   0  0  0  0  0  0  0  0  0  0  0  0
    3.7790   -0.5791    1.2798 H   0  0  0  0  0  0  0  0  0  0  0  0
    4.4318   -0.5923   -0.3897 H   0  0  0  0  0  0  0  0  0  0  0  0
    2.9308   -1.5659    0.0037 H   0  0  0  0  0  0  0  0  0  0  0  0
    4.0717    1.9318   -1.0655 H   0  0  0  0  0  0  0  0  0  0  0  0
    0.6479   -0.7932    1.5402 H   0  0  0  0  0  0  0  0  0  0  0  0
    0.7123   -2.4783    0.0744 H   0  0  0  0  0  0  0  0  0  0  0  0
    0.9057   -1.4061   -1.2741 H   0  0  0  0  0  0  0  0  0  0  0  0
   -1.1125    0.9223    1.1429 H   0  0  0  0  0  0  0  0  0  0  0  0
   -1.4801    1.6302   -0.9806 H   0  0  0  0  0  0  0  0  0  0  0  0
   -0.4173    0.3430   -1.5922 H   0  0  0  0  0  0  0  0  0  0  0  0
   -3.9464   -1.2873   -1.0620 H   0  0  0  0  0  0  0  0  0  0  0  0
   -4.2318    0.5011   -1.1208 H   0  0  0  0  0  0  0  0  0  0  0  0
   -4.0176   -0.7726    1.2390 H   0  0  0  0  0  0  0  0  0  0  0  0
   -3.1506    0.7692    1.0296 H   0  0  0  0  0  0  0  0  0  0  0  0
  1  2  1  0
  2  3  1  0
  3  4  1  0
  4  5  2  0
  5  6  2  0
  6  7  1  0
  7  8  1  0
  7  9  1  0
  9 10  1  0
 10 11  1  0
 11 12  1  0
 12 13  1  0
 13 14  1  0
  6  2  1  0
 14  9  1  0
  1 15  1  0
  1 16  1  0
  1 17  1  0
  3 18  1  0
  7 19  1  1
  8 20  1  0
  8 21  1  0
  9 22  1  1
 10 23  1  0
 10 24  1  0
 12 25  1  0
 12 26  1  0
 13 27  1  0
 13 28  1  0
M  END
$$$$

     RDKit          3D

 28 29  0  0  0  0  0  0  0  0999 V2000
    2.1244    1.7836    0.4123 C   0  0  0  0  0  0  0  0  0  0  0  0
    2.2594    0.6767   -0.5202 N   0  0  0  0  0  0  0  0  0  0  0  0
    3.0456    0.6374   -1.6998 N   0  0  0  0  0  0  0  0  0  0  0  0
    2.8625   -0.6280   -2.2678 N   0  0  0  0  0  0  0  0  0  0  0  0
    2.1693   -1.3023   -1.4124 C   0  0  0  0  0  0  0  0  0  0  0  0
    1.6465   -0.5976   -0.4638 C   0  0  0  0  0  0  0  0  0  0  0  0
    0.6093   -1.0604    0.4809 C   0  0  2  0  0  0  0  0  0  0  0  0
    0.2456   -2.4487    0.2396 N   0  0  0  0  0  0  0  0  0  0  0  0
   -0.6171   -0.1617    0.4121 C   0  0  1  0  0  0  0  0  0  0  0  0
   -1.2314   -0.2362   -0.9422 C   0  0  0  0  0  0  0  0  0  0  0  0
   -2.5096    0.2202   -1.0258 O   0  0  0  0  0  0  0  0  0  0  0  0
   -3.0657    0.7070    0.1122 C   0  0  0  0  0  0  0  0  0  0  0  0
   -2.7181   -0.0213    1.3699 C   0  0  0  0  0  0  0  0  0  0  0  0
   -1.4926   -0.6047    1.3907 O   0  0  0  0  0  0  0  0  0  0  0  0
    3.1228    2.2761    0.4654 H   0  0  0  0  0  0  0  0  0  0  0  0
    1.3651    2.4909    0.0322 H   0  0  0  0  0  0  0  0  0  0  0  0
    1.8763    1.4343    1.4198 H   0  0  0  0  0  0  0  0  0  0  0  0
    3.6288    1.4331   -2.0293 H   0  0  0  0  0  0  0  0  0  0  0  0
    1.0599   -1.0293    1.4954 H   0  0  0  0  0  0  0  0  0  0  0  0
    0.0172   -2.9179    1.1522 H   0  0  0  0  0  0  0  0  0  0  0  0
    1.0420   -2.9703   -0.2102 H   0  0  0  0  0  0  0  0  0  0  0  0
   -0.3113    0.8810    0.6138 H   0  0  0  0  0  0  0  0  0  0  0  0
   -0.5987    0.3926   -1.6353 H   0  0  0  0  0  0  0  0  0  0  0  0
   -1.2123   -1.2791   -1.3610 H   0  0  0  0  0  0  0  0  0  0  0  0
   -2.8556    1.8003    0.1938 H   0  0  0  0  0  0  0  0  0  0  0  0
   -4.1874    0.6440    0.0005 H   0  0  0  0  0  0  0  0  0  0  0  0
   -2.7909    0.7028    2.2124 H   0  0  0  0  0  0  0  0  0  0  0  0
   -3.4839   -0.8223    1.5648 H   0  0  0  0  0  0  0  0  0  0  0  0
  1  2  1  0
  2  3  1  0
  3  4  1  0
  4  5  2  0
  5  6  2  0
  6  7  1  0
  7  8  1  0
  7  9  1  0
  9 10  1  0
 10 11  1  0
 11 12  1  0
 12 13  1  0
 13 14  1  0
  6  2  1  0
 14  9  1  0
  1 15  1  0
  1 16  1  0
  1 17  1  0
  3 18  1  0
  7 19  1  1
  8 20  1  0
  8 21  1  0
  9 22  1  1
 10 23  1  0
 10 24  1  0
 12 25  1  0
 12 26  1  0
 13 27  1  0
 13 28  1  0
M  END
$$$$

     RDKit          3D

 28 29  0  0  0  0  0  0  0  0999 V2000
    3.6013   -0.5805    0.1491 C   0  0  0  0  0  0  0  0  0  0  0  0
    2.6476    0.4452   -0.2337 N   0  0  0  0  0  0  0  0  0  0  0  0
    2.9223    1.7426   -0.7387 N   0  0  0  0  0  0  0  0  0  0  0  0
    1.6839    2.3664   -0.9623 N   0  0  0  0  0  0  0  0  0  0  0  0
    0.8269    1.4281   -0.8759 C   0  0  0  0  0  0  0  0  0  0  0  0
    1.2280    0.3742   -0.1864 C   0  0  0  0  0  0  0  0  0  0  0  0
    0.4498   -0.6618    0.4920 C   0  0  2  0  0  0  0  0  0  0  0  0
    0.7752   -1.9498   -0.0820 N   0  0  0  0  0  0  0  0  0  0  0  0
   -1.0316   -0.4061    0.4871 C   0  0  1  0  0  0  0  0  0  0  0  0
   -1.4139    0.8981    1.1023 C   0  0  0  0  0  0  0  0  0  0  0  0
   -2.7871    0.8652    1.3564 O   0  0  0  0  0  0  0  0  0  0  0  0
   -3.5040    0.1686    0.4193 C   0  0  0  0  0  0  0  0  0  0  0  0
   -2.8151    0.0305   -0.9108 C   0  0  0  0  0  0  0  0  0  0  0  0
   -1.5211   -0.4287   -0.8195 O   0  0  0  0  0  0  0  0  0  0  0  0
    3.1017   -1.2539    0.8591 H   0  0  0  0  0  0  0  0  0  0  0  0
    3.8855   -1.2136   -0.7325 H   0  0  0  0  0  0  0  0  0  0  0  0
    4.4993   -0.0942    0.5606 H   0  0  0  0  0  0  0  0  0  0  0  0
    3.8801    2.1188   -0.8973 H   0  0  0  0  0  0  0  0  0  0  0  0
    0.7748   -0.7043    1.5614 H   0  0  0  0  0  0  0  0  0  0  0  0
    0.7588   -2.7239    0.5974 H   0  0  0  0  0  0  0  0  0  0  0  0
    0.2804   -2.1494   -0.9656 H   0  0  0  0  0  0  0  0  0  0  0  0
   -1.5511   -1.2221    1.0306 H   0  0  0  0  0  0  0  0  0  0  0  0
   -1.2730    1.7497    0.3739 H   0  0  0  0  0  0  0  0  0  0  0  0
   -0.8846    1.1001    2.0557 H   0  0  0  0  0  0  0  0  0  0  0  0
   -3.7951   -0.8203    0.8352 H   0  0  0  0  0  0  0  0  0  0  0  0
   -4.4580    0.7117    0.2380 H   0  0  0  0  0  0  0  0  0  0  0  0
   -2.8838    0.9571   -1.5035 H   0  0  0  0  0  0  0  0  0  0  0  0
   -3.3973   -0.7477   -1.4870 H   0  0  0  0  0  0  0  0  0  0  0  0
  1  2  1  0
  2  3  1  0
  3  4  1  0
  4  5  2  0
  5  6  2  0
  6  7  1  0
  7  8  1  0
  7  9  1  0
  9 10  1  0
 10 11  1  0
 11 12  1  0
 12 13  1  0
 13 14  1  0
  6  2  1  0
 14  9  1  0
  1 15  1  0
  1 16  1  0
  1 17  1  0
  3 18  1  0
  7 19  1  1
  8 20  1  0
  8 21  1  0
  9 22  1  1
 10 23  1  0
 10 24  1  0
 12 25  1  0
 12 26  1  0
 13 27  1  0
 13 28  1  0
M  END
$$$$

     RDKit          3D

 28 29  0  0  0  0  0  0  0  0999 V2000
    1.9075    1.3936    0.0455 C   0  0  0  0  0  0  0  0  0  0  0  0
    1.8266    0.2116    0.8154 N   0  0  0  0  0  0  0  0  0  0  0  0
    2.3249    0.0935    2.1302 N   0  0  0  0  0  0  0  0  0  0  0  0
    2.0672   -1.2192    2.5715 N   0  0  0  0  0  0  0  0  0  0  0  0
    1.6023   -1.8132    1.5210 C   0  0  0  0  0  0  0  0  0  0  0  0
    1.2789   -1.0595    0.5143 C   0  0  0  0  0  0  0  0  0  0  0  0
    0.5247   -1.4319   -0.6552 C   0  0  2  0  0  0  0  0  0  0  0  0
    1.1877   -1.2481   -1.9140 N   0  0  0  0  0  0  0  0  0  0  0  0
   -0.8310   -0.7618   -0.7855 C   0  0  1  0  0  0  0  0  0  0  0  0
   -1.6751   -0.9260    0.4471 C   0  0  0  0  0  0  0  0  0  0  0  0
   -1.4904    0.2031    1.2486 O   0  0  0  0  0  0  0  0  0  0  0  0
   -2.2004    1.2444    0.6089 C   0  0  0  0  0  0  0  0  0  0  0  0
   -1.8799    1.2584   -0.8681 C   0  0  0  0  0  0  0  0  0  0  0  0
   -0.6810    0.5762   -1.0621 O   0  0  0  0  0  0  0  0  0  0  0  0
    1.9758    1.2615   -1.0443 H   0  0  0  0  0  0  0  0  0  0  0  0
    1.1118    2.1336    0.3221 H   0  0  0  0  0  0  0  0  0  0  0  0
    2.8695    1.9201    0.3238 H   0  0  0  0  0  0  0  0  0  0  0  0
    2.8064    0.8347    2.7026 H   0  0  0  0  0  0  0  0  0  0  0  0
    0.2786   -2.5364   -0.6064 H   0  0  0  0  0  0  0  0  0  0  0  0
    0.8289   -0.4524   -2.4682 H   0  0  0  0  0  0  0  0  0  0  0  0
    1.3700   -2.1045   -2.4382 H   0  0  0  0  0  0  0  0  0  0  0  0
   -1.3713   -1.2261   -1.6351 H   0  0  0  0  0  0  0  0  0  0  0  0
   -2.7383   -0.9065    0.1286 H   0  0  0  0  0  0  0  0  0  0  0  0
   -1.5071   -1.8541    0.9892 H   0  0  0  0  0  0  0  0  0  0  0  0
   -1.8287    2.1871    1.0425 H   0  0  0  0  0  0  0  0  0  0  0  0
   -3.2826    1.0950    0.7497 H   0  0  0  0  0  0  0  0  0  0  0  0
   -1.7819    2.3129   -1.2081 H   0  0  0  0  0  0  0  0  0  0  0  0
   -2.6933    0.8141   -1.4757 H   0  0  0  0  0  0  0  0  0  0  0  0
  1  2  1  0
  2  3  1  0
  3  4  1  0
  4  5  2  0
  5  6  2  0
  6  7  1  0
  7  8  1  0
  7  9  1  0
  9 10  1  0
 10 11  1  0
 11 12  1  0
 12 13  1  0
 13 14  1  0
  6  2  1  0
 14  9  1  0
  1 15  1  0
  1 16  1  0
  1 17  1  0
  3 18  1  0
  7 19  1  1
  8 20  1  0
  8 21  1  0
  9 22  1  6
 10 23  1  0
 10 24  1  0
 12 25  1  0
 12 26  1  0
 13 27  1  0
 13 28  1  0
M  END
$$$$

     RDKit          3D

 28 29  0  0  0  0  0  0  0  0999 V2000
   -2.7313   -0.8765   -0.5982 C   0  0  0  0  0  0  0  0  0  0  0  0
   -2.5192    0.2740    0.2098 N   0  0  0  0  0  0  0  0  0  0  0  0
   -3.4271    1.0698    0.9355 N   0  0  0  0  0  0  0  0  0  0  0  0
   -2.6626    2.0870    1.5640 N   0  0  0  0  0  0  0  0  0  0  0  0
   -1.4589    1.6247    1.5124 C   0  0  0  0  0  0  0  0  0  0  0  0
   -1.2527    0.8610    0.4439 C   0  0  0  0  0  0  0  0  0  0  0  0
    0.0209    0.7634   -0.2119 C   0  0  2  0  0  0  0  0  0  0  0  0
   -0.1430    1.2646   -1.5871 N   0  0  0  0  0  0  0  0  0  0  0  0
    0.6472   -0.5787   -0.3256 C   0  0  1  0  0  0  0  0  0  0  0  0
    2.0653   -0.4308   -0.9070 C   0  0  0  0  0  0  0  0  0  0  0  0
    2.7619    0.5109   -0.1755 O   0  0  0  0  0  0  0  0  0  0  0  0
    2.9971   -0.0602    1.0913 C   0  0  0  0  0  0  0  0  0  0  0  0
    2.1337   -1.2791    1.3044 C   0  0  0  0  0  0  0  0  0  0  0  0
    0.8255   -1.1087    0.9430 O   0  0  0  0  0  0  0  0  0  0  0  0
   -2.7944   -0.6932   -1.6912 H   0  0  0  0  0  0  0  0  0  0  0  0
   -3.7795   -1.2360   -0.3441 H   0  0  0  0  0  0  0  0  0  0  0  0
   -2.1007   -1.7477   -0.3350 H   0  0  0  0  0  0  0  0  0  0  0  0
   -4.4548    0.9008    0.9710 H   0  0  0  0  0  0  0  0  0  0  0  0
    0.7506    1.4720    0.2444 H   0  0  0  0  0  0  0  0  0  0  0  0
   -0.1677    2.2991   -1.5251 H   0  0  0  0  0  0  0  0  0  0  0  0
   -1.1018    0.9747   -1.8783 H   0  0  0  0  0  0  0  0  0  0  0  0
    0.1572   -1.2965   -0.9712 H   0  0  0  0  0  0  0  0  0  0  0  0
    1.9091   -0.0157   -1.9283 H   0  0  0  0  0  0  0  0  0  0  0  0
    2.5658   -1.3922   -1.0154 H   0  0  0  0  0  0  0  0  0  0  0  0
    2.9367    0.6784    1.8887 H   0  0  0  0  0  0  0  0  0  0  0  0
    4.0619   -0.4202    1.0486 H   0  0  0  0  0  0  0  0  0  0  0  0
    2.1415   -1.4666    2.4182 H   0  0  0  0  0  0  0  0  0  0  0  0
    2.6194   -2.1782    0.8667 H   0  0  0  0  0  0  0  0  0  0  0  0
  1  2  1  0
  2  3  1  0
  3  4  1  0
  4  5  2  0
  5  6  2  0
  6  7  1  0
  7  8  1  0
  7  9  1  0
  9 10  1  0
 10 11  1  0
 11 12  1  0
 12 13  1  0
 13 14  1  0
  6  2  1  0
 14  9  1  0
  1 15  1  0
  1 16  1  0
  1 17  1  0
  3 18  1  0
  7 19  1  1
  8 20  1  0
  8 21  1  0
  9 22  1  6
 10 23  1  0
 10 24  1  0
 12 25  1  0
 12 26  1  0
 13 27  1  0
 13 28  1  0
M  END
$$$$

     RDKit          3D

 28 29  0  0  0  0  0  0  0  0999 V2000
    1.9780    1.8227   -0.0788 C   0  0  0  0  0  0  0  0  0  0  0  0
    2.3520    0.4392   -0.1718 N   0  0  0  0  0  0  0  0  0  0  0  0
    3.4271   -0.0762   -0.9410 N   0  0  0  0  0  0  0  0  0  0  0  0
    3.3777   -1.4724   -0.6954 N   0  0  0  0  0  0  0  0  0  0  0  0
    2.5833   -1.6420    0.3100 C   0  0  0  0  0  0  0  0  0  0  0  0
    1.7371   -0.6652    0.4751 C   0  0  0  0  0  0  0  0  0  0  0  0
    0.4340   -0.7069    1.1751 C   0  0  2  0  0  0  0  0  0  0  0  0
    0.2725   -2.0637    1.7191 N   0  0  0  0  0  0  0  0  0  0  0  0
   -0.7335   -0.5064    0.2368 C   0  0  1  0  0  0  0  0  0  0  0  0
   -1.9967   -0.6116    1.0850 C   0  0  0  0  0  0  0  0  0  0  0  0
   -2.6825    0.5985    1.1357 O   0  0  0  0  0  0  0  0  0  0  0  0
   -3.0961    1.0215   -0.1233 C   0  0  0  0  0  0  0  0  0  0  0  0
   -1.9558    0.8095   -1.0900 C   0  0  0  0  0  0  0  0  0  0  0  0
   -0.7600    0.7235   -0.3796 O   0  0  0  0  0  0  0  0  0  0  0  0
    2.8861    2.4559    0.0447 H   0  0  0  0  0  0  0  0  0  0  0  0
    1.4816    2.1717   -1.0156 H   0  0  0  0  0  0  0  0  0  0  0  0
    1.3505    2.0137    0.8080 H   0  0  0  0  0  0  0  0  0  0  0  0
    4.0978    0.4464   -1.5459 H   0  0  0  0  0  0  0  0  0  0  0  0
    0.3740   -0.0225    2.0337 H   0  0  0  0  0  0  0  0  0  0  0  0
    0.7904   -2.1684    2.6174 H   0  0  0  0  0  0  0  0  0  0  0  0
    0.6081   -2.7624    0.9933 H   0  0  0  0  0  0  0  0  0  0  0  0
   -0.6946   -1.2907   -0.5398 H   0  0  0  0  0  0  0  0  0  0  0  0
   -1.7856   -0.9218    2.1181 H   0  0  0  0  0  0  0  0  0  0  0  0
   -2.6172   -1.4202    0.6342 H   0  0  0  0  0  0  0  0  0  0  0  0
   -3.9851    0.4094   -0.3906 H   0  0  0  0  0  0  0  0  0  0  0  0
   -3.3944    2.0878   -0.0547 H   0  0  0  0  0  0  0  0  0  0  0  0
   -2.1199   -0.2123   -1.5412 H   0  0  0  0  0  0  0  0  0  0  0  0
   -1.9290    1.5432   -1.9071 H   0  0  0  0  0  0  0  0  0  0  0  0
  1  2  1  0
  2  3  1  0
  3  4  1  0
  4  5  2  0
  5  6  2  0
  6  7  1  0
  7  8  1  0
  7  9  1  0
  9 10  1  0
 10 11  1  0
 11 12  1  0
 12 13  1  0
 13 14  1  0
  6  2  1  0
 14  9  1  0
  1 15  1  0
  1 16  1  0
  1 17  1  0
  3 18  1  0
  7 19  1  1
  8 20  1  0
  8 21  1  0
  9 22  1  6
 10 23  1  0
 10 24  1  0
 12 25  1  0
 12 26  1  0
 13 27  1  0
 13 28  1  0
M  END
$$$$

     RDKit          3D

 28 29  0  0  0  0  0  0  0  0999 V2000
    2.0417    1.7347    0.4240 C   0  0  0  0  0  0  0  0  0  0  0  0
    2.2146    0.6511   -0.4991 N   0  0  0  0  0  0  0  0  0  0  0  0
    2.9341    0.6103   -1.7010 N   0  0  0  0  0  0  0  0  0  0  0  0
    2.7857   -0.6913   -2.2210 N   0  0  0  0  0  0  0  0  0  0  0  0
    2.3190   -1.3718   -1.2272 C   0  0  0  0  0  0  0  0  0  0  0  0
    1.6629   -0.6518   -0.3599 C   0  0  0  0  0  0  0  0  0  0  0  0
    0.5950   -1.1377    0.5349 C   0  0  2  0  0  0  0  0  0  0  0  0
    0.4491   -2.5626    0.3120 N   0  0  0  0  0  0  0  0  0  0  0  0
   -0.7323   -0.5037    0.1826 C   0  0  1  0  0  0  0  0  0  0  0  0
   -1.8875   -1.1283    0.8817 C   0  0  0  0  0  0  0  0  0  0  0  0
   -2.8502   -0.2397    1.3107 O   0  0  0  0  0  0  0  0  0  0  0  0
   -3.0737    0.8330    0.5145 C   0  0  0  0  0  0  0  0  0  0  0  0
   -1.9073    1.3192   -0.2767 C   0  0  0  0  0  0  0  0  0  0  0  0
   -0.7428    0.8790    0.3509 O   0  0  0  0  0  0  0  0  0  0  0  0
    3.0502    2.2107    0.5417 H   0  0  0  0  0  0  0  0  0  0  0  0
    1.4045    2.5512    0.0044 H   0  0  0  0  0  0  0  0  0  0  0  0
    1.7329    1.3930    1.4183 H   0  0  0  0  0  0  0  0  0  0  0  0
    3.4642    1.4066   -2.1020 H   0  0  0  0  0  0  0  0  0  0  0  0
    0.8471   -0.9869    1.5999 H   0  0  0  0  0  0  0  0  0  0  0  0
    0.2986   -2.6720   -0.7329 H   0  0  0  0  0  0  0  0  0  0  0  0
    1.3487   -3.0451    0.5386 H   0  0  0  0  0  0  0  0  0  0  0  0
   -0.8871   -0.6676   -0.9236 H   0  0  0  0  0  0  0  0  0  0  0  0
   -1.5023   -1.6403    1.8132 H   0  0  0  0  0  0  0  0  0  0  0  0
   -2.3387   -1.9522    0.2826 H   0  0  0  0  0  0  0  0  0  0  0  0
   -3.9649    0.6876   -0.1646 H   0  0  0  0  0  0  0  0  0  0  0  0
   -3.3929    1.6912    1.1782 H   0  0  0  0  0  0  0  0  0  0  0  0
   -1.9110    2.4213   -0.3888 H   0  0  0  0  0  0  0  0  0  0  0  0
   -1.9575    0.8621   -1.2915 H   0  0  0  0  0  0  0  0  0  0  0  0
  1  2  1  0
  2  3  1  0
  3  4  1  0
  4  5  2  0
  5  6  2  0
  6  7  1  0
  7  8  1  0
  7  9  1  0
  9 10  1  0
 10 11  1  0
 11 12  1  0
 12 13  1  0
 13 14  1  0
  6  2  1  0
 14  9  1  0
  1 15  1  0
  1 16  1  0
  1 17  1  0
  3 18  1  0
  7 19  1  1
  8 20  1  0
  8 21  1  0
  9 22  1  6
 10 23  1  0
 10 24  1  0
 12 25  1  0
 12 26  1  0
 13 27  1  0
 13 28  1  0
M  END
$$$$
