
     RDKit          3D

 29 29  0  0  0  0  0  0  0  0999 V2000
    4.5116    0.2981    0.0873 C   0  0  0  0  0  0  0  0  0  0  0  0
    3.1477    0.1210    0.5209 N   0  0  0  0  0  0  0  0  0  0  0  0
    2.0550    0.1476   -0.4203 C   0  0  0  0  0  0  0  0  0  0  0  0
    2.3633    0.3294   -1.6035 O   0  0  0  0  0  0  0  0  0  0  0  0
    0.6874   -0.0353    0.0548 C   0  0  2  0  0  0  0  0  0  0  0  0
    0.6308   -1.3914    0.7689 C   0  0  0  0  0  0  0  0  0  0  0  0
   -0.3079   -0.0130   -0.9608 N   0  0  0  0  0  0  0  0  0  0  0  0
   -0.2161    0.0913   -2.3391 N   0  0  0  0  0  0  0  0  0  0  0  0
   -1.5562    0.0482   -2.8069 N   0  0  0  0  0  0  0  0  0  0  0  0
   -2.2622   -0.3935   -1.8176 C   0  0  0  0  0  0  0  0  0  0  0  0
   -1.7309   -0.1163   -0.6546 C   0  0  0  0  0  0  0  0  0  0  0  0
   -2.3466    0.0672    0.6773 C   0  0  2  0  0  0  0  0  0  0  0  0
   -3.8489   -0.1326    0.5092 C   0  0  0  0  0  0  0  0  0  0  0  0
   -2.1359    1.4229    1.1634 N   0  0  0  0  0  0  0  0  0  0  0  0
    5.1461   -0.5084    0.5081 H   0  0  0  0  0  0  0  0  0  0  0  0
    4.5249    0.2727   -1.0225 H   0  0  0  0  0  0  0  0  0  0  0  0
    4.8369    1.3061    0.4299 H   0  0  0  0  0  0  0  0  0  0  0  0
    2.9624   -0.0273    1.5301 H   0  0  0  0  0  0  0  0  0  0  0  0
    0.3972    0.7349    0.8199 H   0  0  0  0  0  0  0  0  0  0  0  0
    1.5161   -1.9702    0.4552 H   0  0  0  0  0  0  0  0  0  0  0  0
   -0.2634   -1.9640    0.4419 H   0  0  0  0  0  0  0  0  0  0  0  0
    0.6699   -1.2263    1.8567 H   0  0  0  0  0  0  0  0  0  0  0  0
    0.6098    0.1812   -2.9480 H   0  0  0  0  0  0  0  0  0  0  0  0
   -1.9919   -0.6445    1.4243 H   0  0  0  0  0  0  0  0  0  0  0  0
   -4.2878   -0.0584    1.5354 H   0  0  0  0  0  0  0  0  0  0  0  0
   -4.2205    0.7106   -0.0920 H   0  0  0  0  0  0  0  0  0  0  0  0
   -4.0617   -1.1242    0.0502 H   0  0  0  0  0  0  0  0  0  0  0  0
   -1.8140    2.0032    0.3346 H   0  0  0  0  0  0  0  0  0  0  0  0
   -3.0150    1.8710    1.4972 H   0  0  0  0  0  0  0  0  0  0  0  0
  1  2  1  0
  2  3  1  0
  3  4  2  0
  3  5  1  0
  5  6  1  0
  5  7  1  0
  7  8  1  0
  8  9  1  0
  9 10  2  0
 10 11  2  0
 11 12  1  0
 12 13  1  0
 12 14  1  0
 11  7  1  0
  1 15  1  0
  1 16  1  0
  1 17  1  0
  2 18  1  0
  5 19  1  1
  6 20  1  0
  6 21  1  0
  6 22  1  0
  8 23  1  0
 12 24  1  1
 13 25  1  0
 13 26  1  0
 13 27  1  0
 14 28  1  0
 14 29  1  0
M  END
$$$$

     RDKit          3D

 29 29  0  0  0  0  0  0  0  0999 V2000
   -4.2605    0.5115    0.1373 C   0  0  0  0  0  0  0  0  0  0  0  0
   -2.7984    0.4206    0.2031 N   0  0  0  0  0  0  0  0  0  0  0  0
   -2.0190   -0.0192   -0.8722 C   0  0  0  0  0  0  0  0  0  0  0  0
   -2.6667   -0.3302   -1.9349 O   0  0  0  0  0  0  0  0  0  0  0  0
   -0.5513   -0.1225   -0.8172 C   0  0  2  0  0  0  0  0  0  0  0  0
   -0.1677   -1.1815   -1.8552 C   0  0  0  0  0  0  0  0  0  0  0  0
   -0.0350   -0.4522    0.4583 N   0  0  0  0  0  0  0  0  0  0  0  0
   -0.6497   -1.0041    1.5544 N   0  0  0  0  0  0  0  0  0  0  0  0
    0.3427   -1.1676    2.5566 N   0  0  0  0  0  0  0  0  0  0  0  0
    1.4371   -0.8205    2.0148 C   0  0  0  0  0  0  0  0  0  0  0  0
    1.3357   -0.2932    0.8233 C   0  0  0  0  0  0  0  0  0  0  0  0
    2.4382    0.3128    0.0843 C   0  0  2  0  0  0  0  0  0  0  0  0
    3.7169    0.2463    0.8888 C   0  0  0  0  0  0  0  0  0  0  0  0
    2.2148    1.6964   -0.2651 N   0  0  0  0  0  0  0  0  0  0  0  0
   -4.7474   -0.2320    0.7848 H   0  0  0  0  0  0  0  0  0  0  0  0
   -4.5190    1.5206    0.5173 H   0  0  0  0  0  0  0  0  0  0  0  0
   -4.6176    0.4724   -0.9185 H   0  0  0  0  0  0  0  0  0  0  0  0
   -2.3840    0.7261    1.0943 H   0  0  0  0  0  0  0  0  0  0  0  0
   -0.1689    0.8462   -1.2200 H   0  0  0  0  0  0  0  0  0  0  0  0
   -0.9486   -1.9599   -1.9339 H   0  0  0  0  0  0  0  0  0  0  0  0
    0.7794   -1.6457   -1.5571 H   0  0  0  0  0  0  0  0  0  0  0  0
   -0.0419   -0.7157   -2.8407 H   0  0  0  0  0  0  0  0  0  0  0  0
   -1.6236   -1.3083    1.7510 H   0  0  0  0  0  0  0  0  0  0  0  0
    2.6162   -0.2780   -0.8391 H   0  0  0  0  0  0  0  0  0  0  0  0
    4.6215    0.2188    0.2294 H   0  0  0  0  0  0  0  0  0  0  0  0
    3.7148   -0.6903    1.5102 H   0  0  0  0  0  0  0  0  0  0  0  0
    3.7768    1.0824    1.6219 H   0  0  0  0  0  0  0  0  0  0  0  0
    2.2828    1.8281   -1.3188 H   0  0  0  0  0  0  0  0  0  0  0  0
    2.9225    2.3387    0.1434 H   0  0  0  0  0  0  0  0  0  0  0  0
  1  2  1  0
  2  3  1  0
  3  4  2  0
  3  5  1  0
  5  6  1  0
  5  7  1  0
  7  8  1  0
  8  9  1  0
  9 10  2  0
 10 11  2  0
 11 12  1  0
 12 13  1  0
 12 14  1  0
 11  7  1  0
  1 15  1  0
  1 16  1  0
  1 17  1  0
  2 18  1  0
  5 19  1  6
  6 20  1  0
  6 21  1  0
  6 22  1  0
  8 23  1  0
 12 24  1  6
 13 25  1  0
 13 26  1  0
 13 27  1  0
 14 28  1  0
 14 29  1  0
M  END
$$$$

     RDKit          3D

 29 29  0  0  0  0  0  0  0  0999 V2000
    4.4737    0.1283    0.0797 C   0  0  0  0  0  0  0  0  0  0  0  0
    3.1067    0.0741   -0.3913 N   0  0  0  0  0  0  0  0  0  0  0  0
    2.0169   -0.1854    0.5228 C   0  0  0  0  0  0  0  0  0  0  0  0
    2.3610   -0.3525    1.7059 O   0  0  0  0  0  0  0  0  0  0  0  0
    0.6623   -0.2212   -0.0410 C   0  0  2  0  0  0  0  0  0  0  0  0
    0.3903    1.1226   -0.6320 C   0  0  0  0  0  0  0  0  0  0  0  0
   -0.2964   -0.7419    0.8358 N   0  0  0  0  0  0  0  0  0  0  0  0
   -0.0556   -1.3004    2.0877 N   0  0  0  0  0  0  0  0  0  0  0  0
   -1.3111   -1.7232    2.6073 N   0  0  0  0  0  0  0  0  0  0  0  0
   -2.0522   -1.7999    1.5465 C   0  0  0  0  0  0  0  0  0  0  0  0
   -1.7165   -0.8643    0.6721 C   0  0  0  0  0  0  0  0  0  0  0  0
   -2.5433   -0.1105   -0.2406 C   0  0  2  0  0  0  0  0  0  0  0  0
   -2.6771    1.3644    0.0801 C   0  0  0  0  0  0  0  0  0  0  0  0
   -3.9109   -0.6582   -0.1254 N   0  0  0  0  0  0  0  0  0  0  0  0
    4.9024    1.1192   -0.1892 H   0  0  0  0  0  0  0  0  0  0  0  0
    4.5377    0.0383    1.1774 H   0  0  0  0  0  0  0  0  0  0  0  0
    5.0748   -0.6949   -0.3773 H   0  0  0  0  0  0  0  0  0  0  0  0
    2.9109    0.2176   -1.3851 H   0  0  0  0  0  0  0  0  0  0  0  0
    0.7337   -0.9291   -0.9300 H   0  0  0  0  0  0  0  0  0  0  0  0
    1.3594    1.4642   -1.1119 H   0  0  0  0  0  0  0  0  0  0  0  0
    0.1512    1.9158    0.0696 H   0  0  0  0  0  0  0  0  0  0  0  0
   -0.2871    1.0122   -1.5028 H   0  0  0  0  0  0  0  0  0  0  0  0
    0.7938   -1.4557    2.6585 H   0  0  0  0  0  0  0  0  0  0  0  0
   -2.3103   -0.2600   -1.3171 H   0  0  0  0  0  0  0  0  0  0  0  0
   -3.6991    1.6403    0.3304 H   0  0  0  0  0  0  0  0  0  0  0  0
   -2.0312    1.5448    0.9667 H   0  0  0  0  0  0  0  0  0  0  0  0
   -2.3791    1.9454   -0.8142 H   0  0  0  0  0  0  0  0  0  0  0  0
   -4.0116   -1.5215   -0.6705 H   0  0  0  0  0  0  0  0  0  0  0  0
   -4.1935   -0.7683    0.8574 H   0  0  0  0  0  0  0  0  0  0  0  0
  1  2  1  0
  2  3  1  0
  3  4  2  0
  3  5  1  0
  5  6  1  0
  5  7  1  0
  7  8  1  0
  8  9  1  0
  9 10  2  0
 10 11  2  0
 11 12  1  0
 12 13  1  0
 12 14  1  0
 11  7  1  0
  1 15  1  0
  1 16  1  0
  1 17  1  0
  2 18  1  0
  5 19  1  6
  6 20  1  0
  6 21  1  0
  6 22  1  0
  8 23  1  0
 12 24  1  6
 13 25  1  0
 13 26  1  0
 13 27  1  0
 14 28  1  0
 14 29  1  0
M  END
$$$$

     RDKit          3D

 29 29  0  0  0  0  0  0  0  0999 V2000
    4.3537   -0.4918    0.3669 C   0  0  0  0  0  0  0  0  0  0  0  0
    2.9140   -0.3052    0.4788 N   0  0  0  0  0  0  0  0  0  0  0  0
    2.0541   -0.3027   -0.6332 C   0  0  0  0  0  0  0  0  0  0  0  0
    2.6397   -0.4918   -1.7659 O   0  0  0  0  0  0  0  0  0  0  0  0
    0.6240   -0.1212   -0.6469 C   0  0  2  0  0  0  0  0  0  0  0  0
    0.2275    0.4225   -2.0373 C   0  0  0  0  0  0  0  0  0  0  0  0
    0.0028    0.6350    0.3861 N   0  0  0  0  0  0  0  0  0  0  0  0
    0.5241    1.5376    1.3151 N   0  0  0  0  0  0  0  0  0  0  0  0
   -0.5995    1.9984    2.0531 N   0  0  0  0  0  0  0  0  0  0  0  0
   -1.6426    1.4626    1.5452 C   0  0  0  0  0  0  0  0  0  0  0  0
   -1.4247    0.5953    0.6075 C   0  0  0  0  0  0  0  0  0  0  0  0
   -2.4574   -0.2288   -0.0556 C   0  0  2  0  0  0  0  0  0  0  0  0
   -3.8245    0.0492    0.4839 C   0  0  0  0  0  0  0  0  0  0  0  0
   -2.1870   -1.6430    0.1105 N   0  0  0  0  0  0  0  0  0  0  0  0
    4.6969   -0.5041   -0.6665 H   0  0  0  0  0  0  0  0  0  0  0  0
    4.8138    0.4096    0.8474 H   0  0  0  0  0  0  0  0  0  0  0  0
    4.6775   -1.3895    0.8962 H   0  0  0  0  0  0  0  0  0  0  0  0
    2.5018   -0.1900    1.4246 H   0  0  0  0  0  0  0  0  0  0  0  0
    0.1500   -1.1556   -0.5888 H   0  0  0  0  0  0  0  0  0  0  0  0
   -0.5093    1.2410   -1.9425 H   0  0  0  0  0  0  0  0  0  0  0  0
   -0.1261   -0.3990   -2.6933 H   0  0  0  0  0  0  0  0  0  0  0  0
    1.1359    0.8486   -2.5444 H   0  0  0  0  0  0  0  0  0  0  0  0
    1.5155    1.8440    1.4546 H   0  0  0  0  0  0  0  0  0  0  0  0
   -2.4940   -0.0058   -1.1607 H   0  0  0  0  0  0  0  0  0  0  0  0
   -4.5631   -0.2798   -0.2887 H   0  0  0  0  0  0  0  0  0  0  0  0
   -3.9493    1.1593    0.5476 H   0  0  0  0  0  0  0  0  0  0  0  0
   -3.9963   -0.4381    1.4603 H   0  0  0  0  0  0  0  0  0  0  0  0
   -3.0138   -2.1539    0.5390 H   0  0  0  0  0  0  0  0  0  0  0  0
   -2.0437   -2.1029   -0.8143 H   0  0  0  0  0  0  0  0  0  0  0  0
  1  2  1  0
  2  3  1  0
  3  4  2  0
  3  5  1  0
  5  6  1  0
  5  7  1  0
  7  8  1  0
  8  9  1  0
  9 10  2  0
 10 11  2  0
 11 12  1  0
 12 13  1  0
 12 14  1  0
 11  7  1  0
  1 15  1  0
  1 16  1  0
  1 17  1  0
  2 18  1  0
  5 19  1  6
  6 20  1  0
  6 21  1  0
  6 22  1  0
  8 23  1  0
 12 24  1  6
 13 25  1  0
 13 26  1  0
 13 27  1  0
 14 28  1  0
 14 29  1  0
M  END
$$$$

     RDKit          3D

 29 29  0  0  0  0  0  0  0  0999 V2000
    3.9971    1.2862    0.5417 C   0  0  0  0  0  0  0  0  0  0  0  0
    2.5493    1.0761    0.5213 N   0  0  0  0  0  0  0  0  0  0  0  0
    2.0684   -0.2468    0.3647 C   0  0  0  0  0  0  0  0  0  0  0  0
    2.9149   -1.1665    0.2639 O   0  0  0  0  0  0  0  0  0  0  0  0
    0.6325   -0.5861    0.3210 C   0  0  2  0  0  0  0  0  0  0  0  0
    0.5186   -1.9023   -0.4263 C   0  0  0  0  0  0  0  0  0  0  0  0
   -0.0920    0.4677   -0.2935 N   0  0  0  0  0  0  0  0  0  0  0  0
    0.2460    1.5232   -1.1384 N   0  0  0  0  0  0  0  0  0  0  0  0
   -0.9354    2.2368   -1.4698 N   0  0  0  0  0  0  0  0  0  0  0  0
   -1.8694    1.4966   -1.0241 C   0  0  0  0  0  0  0  0  0  0  0  0
   -1.5253    0.5955   -0.1490 C   0  0  0  0  0  0  0  0  0  0  0  0
   -2.4403   -0.0717    0.7255 C   0  0  2  0  0  0  0  0  0  0  0  0
   -2.5707   -1.5449    0.6477 C   0  0  0  0  0  0  0  0  0  0  0  0
   -3.7620    0.5154    0.6082 N   0  0  0  0  0  0  0  0  0  0  0  0
    4.2883    2.1147   -0.1393 H   0  0  0  0  0  0  0  0  0  0  0  0
    4.3358    1.5348    1.5835 H   0  0  0  0  0  0  0  0  0  0  0  0
    4.5511    0.3858    0.2404 H   0  0  0  0  0  0  0  0  0  0  0  0
    1.9411    1.9032    0.6437 H   0  0  0  0  0  0  0  0  0  0  0  0
    0.3598   -0.7405    1.4012 H   0  0  0  0  0  0  0  0  0  0  0  0
   -0.3137   -1.9426   -1.1264 H   0  0  0  0  0  0  0  0  0  0  0  0
    0.4065   -2.7070    0.3269 H   0  0  0  0  0  0  0  0  0  0  0  0
    1.4423   -2.1373   -0.9929 H   0  0  0  0  0  0  0  0  0  0  0  0
    1.1956    1.7504   -1.4901 H   0  0  0  0  0  0  0  0  0  0  0  0
   -2.1305    0.1596    1.7909 H   0  0  0  0  0  0  0  0  0  0  0  0
   -2.6095   -1.8694   -0.4136 H   0  0  0  0  0  0  0  0  0  0  0  0
   -3.5642   -1.8108    1.0741 H   0  0  0  0  0  0  0  0  0  0  0  0
   -1.8362   -2.1091    1.2481 H   0  0  0  0  0  0  0  0  0  0  0  0
   -3.6196    1.5589    0.5104 H   0  0  0  0  0  0  0  0  0  0  0  0
   -4.1784    0.2301   -0.3243 H   0  0  0  0  0  0  0  0  0  0  0  0
  1  2  1  0
  2  3  1  0
  3  4  2  0
  3  5  1  0
  5  6  1  0
  5  7  1  0
  7  8  1  0
  8  9  1  0
  9 10  2  0
 10 11  2  0
 11 12  1  0
 12 13  1  0
 12 14  1  0
 11  7  1  0
  1 15  1  0
  1 16  1  0
  1 17  1  0
  2 18  1  0
  5 19  1  1
  6 20  1  0
  6 21  1  0
  6 22  1  0
  8 23  1  0
 12 24  1  1
 13 25  1  0
 13 26  1  0
 13 27  1  0
 14 28  1  0
 14 29  1  0
M  END
$$$$

     RDKit          3D

 29 29  0  0  0  0  0  0  0  0999 V2000
   -3.0726    1.7843    1.2250 C   0  0  0  0  0  0  0  0  0  0  0  0
   -2.5526    0.7785    0.3125 N   0  0  0  0  0  0  0  0  0  0  0  0
   -1.3001    0.1613    0.4805 C   0  0  0  0  0  0  0  0  0  0  0  0
   -0.5669    0.4630    1.4480 O   0  0  0  0  0  0  0  0  0  0  0  0
   -0.8324   -0.8545   -0.4861 C   0  0  2  0  0  0  0  0  0  0  0  0
   -1.7844   -2.0459   -0.3449 C   0  0  0  0  0  0  0  0  0  0  0  0
    0.5006   -1.3106   -0.2671 N   0  0  0  0  0  0  0  0  0  0  0  0
    0.8997   -2.6055    0.1581 N   0  0  0  0  0  0  0  0  0  0  0  0
    2.3163   -2.5122    0.2306 N   0  0  0  0  0  0  0  0  0  0  0  0
    2.5747   -1.2388    0.2918 C   0  0  0  0  0  0  0  0  0  0  0  0
    1.6959   -0.5436   -0.4185 C   0  0  0  0  0  0  0  0  0  0  0  0
    1.9524    0.6983   -1.1724 C   0  0  2  0  0  0  0  0  0  0  0  0
    3.4349    1.0507   -0.9773 C   0  0  0  0  0  0  0  0  0  0  0  0
    1.2016    1.8279   -0.7001 N   0  0  0  0  0  0  0  0  0  0  0  0
   -4.1821    1.6210    1.3099 H   0  0  0  0  0  0  0  0  0  0  0  0
   -2.6639    1.6796    2.2410 H   0  0  0  0  0  0  0  0  0  0  0  0
   -2.9560    2.8191    0.8113 H   0  0  0  0  0  0  0  0  0  0  0  0
   -3.1619    0.5135   -0.5103 H   0  0  0  0  0  0  0  0  0  0  0  0
   -0.9355   -0.4409   -1.5268 H   0  0  0  0  0  0  0  0  0  0  0  0
   -1.7341   -2.3471    0.7392 H   0  0  0  0  0  0  0  0  0  0  0  0
   -1.5096   -2.8577   -1.0262 H   0  0  0  0  0  0  0  0  0  0  0  0
   -2.8149   -1.6608   -0.4991 H   0  0  0  0  0  0  0  0  0  0  0  0
    0.3018   -3.4331    0.3689 H   0  0  0  0  0  0  0  0  0  0  0  0
    1.8008    0.5442   -2.2802 H   0  0  0  0  0  0  0  0  0  0  0  0
    3.6113    2.1226   -1.1596 H   0  0  0  0  0  0  0  0  0  0  0  0
    3.6555    0.7932    0.0903 H   0  0  0  0  0  0  0  0  0  0  0  0
    4.0835    0.3911   -1.5927 H   0  0  0  0  0  0  0  0  0  0  0  0
    1.7652    2.6910   -0.8432 H   0  0  0  0  0  0  0  0  0  0  0  0
    0.2726    1.9112   -1.2134 H   0  0  0  0  0  0  0  0  0  0  0  0
  1  2  1  0
  2  3  1  0
  3  4  2  0
  3  5  1  0
  5  6  1  0
  5  7  1  0
  7  8  1  0
  8  9  1  0
  9 10  2  0
 10 11  2  0
 11 12  1  0
 12 13  1  0
 12 14  1  0
 11  7  1  0
  1 15  1  0
  1 16  1  0
  1 17  1  0
  2 18  1  0
  5 19  1  6
  6 20  1  0
  6 21  1  0
  6 22  1  0
  8 23  1  0
 12 24  1  6
 13 25  1  0
 13 26  1  0
 13 27  1  0
 14 28  1  0
 14 29  1  0
M  END
$$$$

     RDKit          3D

 29 29  0  0  0  0  0  0  0  0999 V2000
    2.8311    2.2182   -0.3724 C   0  0  0  0  0  0  0  0  0  0  0  0
    2.3555    0.8562   -0.3266 N   0  0  0  0  0  0  0  0  0  0  0  0
    1.2084    0.5313    0.4491 C   0  0  0  0  0  0  0  0  0  0  0  0
    0.6418    1.4471    1.0741 O   0  0  0  0  0  0  0  0  0  0  0  0
    0.7911   -0.8824    0.4401 C   0  0  2  0  0  0  0  0  0  0  0  0
    0.9625   -1.4717   -0.9450 C   0  0  0  0  0  0  0  0  0  0  0  0
   -0.4135   -1.2283    1.0779 N   0  0  0  0  0  0  0  0  0  0  0  0
   -0.5503   -2.0210    2.2613 N   0  0  0  0  0  0  0  0  0  0  0  0
   -1.9128   -2.0957    2.5164 N   0  0  0  0  0  0  0  0  0  0  0  0
   -2.4643   -1.7775    1.3958 C   0  0  0  0  0  0  0  0  0  0  0  0
   -1.7352   -0.8873    0.7158 C   0  0  0  0  0  0  0  0  0  0  0  0
   -2.2420    0.1451   -0.1551 C   0  0  2  0  0  0  0  0  0  0  0  0
   -1.6789    0.2150   -1.5508 C   0  0  0  0  0  0  0  0  0  0  0  0
   -2.3487    1.4717    0.3877 N   0  0  0  0  0  0  0  0  0  0  0  0
    3.7817    2.2841   -0.9302 H   0  0  0  0  0  0  0  0  0  0  0  0
    3.0468    2.5813    0.6733 H   0  0  0  0  0  0  0  0  0  0  0  0
    2.1035    2.9019   -0.8217 H   0  0  0  0  0  0  0  0  0  0  0  0
    2.8818    0.1177   -0.8820 H   0  0  0  0  0  0  0  0  0  0  0  0
    1.6298   -1.3837    1.0304 H   0  0  0  0  0  0  0  0  0  0  0  0
    0.0895   -2.1494   -1.1114 H   0  0  0  0  0  0  0  0  0  0  0  0
    1.0597   -0.7085   -1.7371 H   0  0  0  0  0  0  0  0  0  0  0  0
    1.8507   -2.1228   -1.0514 H   0  0  0  0  0  0  0  0  0  0  0  0
    0.2441   -2.4393    2.7936 H   0  0  0  0  0  0  0  0  0  0  0  0
   -3.3453   -0.1266   -0.3533 H   0  0  0  0  0  0  0  0  0  0  0  0
   -2.4288    0.7904   -2.1788 H   0  0  0  0  0  0  0  0  0  0  0  0
   -1.6191   -0.7643   -2.0503 H   0  0  0  0  0  0  0  0  0  0  0  0
   -0.7640    0.8352   -1.6349 H   0  0  0  0  0  0  0  0  0  0  0  0
   -1.7813    2.1770   -0.1283 H   0  0  0  0  0  0  0  0  0  0  0  0
   -2.1936    1.4862    1.4136 H   0  0  0  0  0  0  0  0  0  0  0  0
  1  2  1  0
  2  3  1  0
  3  4  2  0
  3  5  1  0
  5  6  1  0
  5  7  1  0
  7  8  1  0
  8  9  1  0
  9 10  2  0
 10 11  2  0
 11 12  1  0
 12 13  1  0
 12 14  1  0
 11  7  1  0
  1 15  1  0
  1 16  1  0
  1 17  1  0
  2 18  1  0
  5 19  1  1
  6 20  1  0
  6 21  1  0
  6 22  1  0
  8 23  1  0
 12 24  1  6
 13 25  1  0
 13 26  1  0
 13 27  1  0
 14 28  1  0
 14 29  1  0
M  END
$$$$

     RDKit          3D

 29 29  0  0  0  0  0  0  0  0999 V2000
    3.1673    1.6909   -1.6469 C   0  0  0  0  0  0  0  0  0  0  0  0
    2.5688    0.7848   -0.6828 N   0  0  0  0  0  0  0  0  0  0  0  0
    1.2764    0.2374   -0.8513 C   0  0  0  0  0  0  0  0  0  0  0  0
    0.6516    0.5662   -1.8804 O   0  0  0  0  0  0  0  0  0  0  0  0
    0.7140   -0.6585    0.1257 C   0  0  2  0  0  0  0  0  0  0  0  0
    1.7075   -1.8135    0.3181 C   0  0  0  0  0  0  0  0  0  0  0  0
   -0.5889   -1.1577   -0.1091 N   0  0  0  0  0  0  0  0  0  0  0  0
   -0.9057   -2.5158   -0.2556 N   0  0  0  0  0  0  0  0  0  0  0  0
   -2.2890   -2.5916   -0.4737 N   0  0  0  0  0  0  0  0  0  0  0  0
   -2.6460   -1.3780   -0.7045 C   0  0  0  0  0  0  0  0  0  0  0  0
   -1.8199   -0.4671   -0.2485 C   0  0  0  0  0  0  0  0  0  0  0  0
   -2.0152    0.9447    0.0736 C   0  0  2  0  0  0  0  0  0  0  0  0
   -1.7169    1.2713    1.5206 C   0  0  0  0  0  0  0  0  0  0  0  0
   -3.4572    1.2186   -0.0991 N   0  0  0  0  0  0  0  0  0  0  0  0
    3.3621    2.6470   -1.0780 H   0  0  0  0  0  0  0  0  0  0  0  0
    2.5371    1.8596   -2.5230 H   0  0  0  0  0  0  0  0  0  0  0  0
    4.1846    1.2931   -1.8950 H   0  0  0  0  0  0  0  0  0  0  0  0
    3.1751    0.5637    0.1594 H   0  0  0  0  0  0  0  0  0  0  0  0
    0.6859   -0.1747    1.1517 H   0  0  0  0  0  0  0  0  0  0  0  0
    2.7222   -1.4427    0.5042 H   0  0  0  0  0  0  0  0  0  0  0  0
    1.7562   -2.4474   -0.5979 H   0  0  0  0  0  0  0  0  0  0  0  0
    1.4013   -2.4282    1.1895 H   0  0  0  0  0  0  0  0  0  0  0  0
   -0.2480   -3.3261   -0.2129 H   0  0  0  0  0  0  0  0  0  0  0  0
   -1.5332    1.6549   -0.6242 H   0  0  0  0  0  0  0  0  0  0  0  0
   -2.4915    1.9640    1.9581 H   0  0  0  0  0  0  0  0  0  0  0  0
   -0.7724    1.8723    1.5164 H   0  0  0  0  0  0  0  0  0  0  0  0
   -1.6792    0.3974    2.1724 H   0  0  0  0  0  0  0  0  0  0  0  0
   -3.7629    0.6349   -0.9348 H   0  0  0  0  0  0  0  0  0  0  0  0
   -3.9841    0.8004    0.7124 H   0  0  0  0  0  0  0  0  0  0  0  0
  1  2  1  0
  2  3  1  0
  3  4  2  0
  3  5  1  0
  5  6  1  0
  5  7  1  0
  7  8  1  0
  8  9  1  0
  9 10  2  0
 10 11  2  0
 11 12  1  0
 12 13  1  0
 12 14  1  0
 11  7  1  0
  1 15  1  0
  1 16  1  0
  1 17  1  0
  2 18  1  0
  5 19  1  1
  6 20  1  0
  6 21  1  0
  6 22  1  0
  8 23  1  0
 12 24  1  6
 13 25  1  0
 13 26  1  0
 13 27  1  0
 14 28  1  0
 14 29  1  0
M  END
$$$$
