
     RDKit          3D

 31 32  0  0  0  0  0  0  0  0999 V2000
   -3.1267    1.5334   -0.0824 C   0  0  0  0  0  0  0  0  0  0  0  0
   -2.3338    0.2501    0.0201 C   0  0  0  0  0  0  0  0  0  0  0  0
   -2.9027   -0.5223    1.2206 C   0  0  0  0  0  0  0  0  0  0  0  0
   -2.5479   -0.6445   -1.1815 C   0  0  0  0  0  0  0  0  0  0  0  0
   -0.9485    0.4642    0.2898 N   0  0  0  0  0  4  0  0  0  0  0  0
   -0.0026    0.0889   -0.4690 C   0  0  0  0  0  0  0  0  0  0  0  0
    1.1918    0.1451    0.0310 C   0  0  0  0  0  0  0  0  0  0  0  0
    2.3632   -0.4704   -0.5806 C   0  0  0  0  0  0  0  0  0  0  0  0
    2.0984   -1.1321   -1.7581 O   0  0  0  0  0  0  0  0  0  0  0  0
    3.0266   -1.4089    0.4391 C   0  0  0  0  0  0  0  0  0  0  0  0
    3.9026   -0.3024    0.7774 N   0  0  0  0  0  0  0  0  0  0  0  0
    3.6485    0.3034   -0.5301 C   0  0  0  0  0  0  0  0  0  0  0  0
    1.0598    0.8979    1.2228 N   0  0  0  0  0  0  0  0  0  0  0  0
   -0.3172    1.0895    1.3674 N   0  0  0  0  0  0  0  0  0  0  0  0
   -2.8201    2.1610    0.7846 H   0  0  0  0  0  0  0  0  0  0  0  0
   -4.2056    1.2349    0.0399 H   0  0  0  0  0  0  0  0  0  0  0  0
   -2.9272    1.9915   -1.0540 H   0  0  0  0  0  0  0  0  0  0  0  0
   -3.9796   -0.6533    0.9942 H   0  0  0  0  0  0  0  0  0  0  0  0
   -2.3558   -1.4984    1.2350 H   0  0  0  0  0  0  0  0  0  0  0  0
   -2.6976    0.0778    2.1103 H   0  0  0  0  0  0  0  0  0  0  0  0
   -2.0811   -1.6250   -0.9526 H   0  0  0  0  0  0  0  0  0  0  0  0
   -2.0381   -0.2463   -2.0718 H   0  0  0  0  0  0  0  0  0  0  0  0
   -3.6239   -0.8114   -1.3363 H   0  0  0  0  0  0  0  0  0  0  0  0
    1.9125   -0.4977   -2.4913 H   0  0  0  0  0  0  0  0  0  0  0  0
    2.3696   -1.6930    1.2718 H   0  0  0  0  0  0  0  0  0  0  0  0
    3.5036   -2.2885   -0.0034 H   0  0  0  0  0  0  0  0  0  0  0  0
    4.8883   -0.5579    0.9501 H   0  0  0  0  0  0  0  0  0  0  0  0
    4.3672   -0.0930   -1.2917 H   0  0  0  0  0  0  0  0  0  0  0  0
    3.5779    1.3930   -0.5207 H   0  0  0  0  0  0  0  0  0  0  0  0
    1.8212    1.2219    1.8324 H   0  0  0  0  0  0  0  0  0  0  0  0
   -0.8229    1.5924    2.1143 H   0  0  0  0  0  0  0  0  0  0  0  0
  1  2  1  0
  2  3  1  0
  2  4  1  0
  2  5  1  0
  5  6  2  0
  6  7  2  0
  7  8  1  0
  8  9  1  0
  8 10  1  0
 10 11  1  0
 11 12  1  0
  7 13  1  0
 13 14  1  0
 14  5  1  0
 12  8  1  0
  1 15  1  0
  1 16  1  0
  1 17  1  0
  3 18  1  0
  3 19  1  0
  3 20  1  0
  4 21  1  0
  4 22  1  0
  4 23  1  0
  9 24  1  0
 10 25  1  0
 10 26  1  0
 11 27  1  0
 12 28  1  0
 12 29  1  0
 13 30  1  0
 14 31  1  0
M  CHG  1   5   1
M  END
$$$$

     RDKit          3D

 31 32  0  0  0  0  0  0  0  0999 V2000
   -2.9194   -1.3336    0.3222 C   0  0  0  0  0  0  0  0  0  0  0  0
   -2.3916    0.0313   -0.0752 C   0  0  0  0  0  0  0  0  0  0  0  0
   -2.6724    0.3692   -1.5031 C   0  0  0  0  0  0  0  0  0  0  0  0
   -2.9990    1.0586    0.8720 C   0  0  0  0  0  0  0  0  0  0  0  0
   -0.9596    0.0088    0.1415 N   0  0  0  0  0  4  0  0  0  0  0  0
    0.0022    0.1800   -0.6693 C   0  0  0  0  0  0  0  0  0  0  0  0
    1.1972    0.0569   -0.1698 C   0  0  0  0  0  0  0  0  0  0  0  0
    2.5310    0.1430   -0.7931 C   0  0  0  0  0  0  0  0  0  0  0  0
    2.5638    0.3971   -2.1379 O   0  0  0  0  0  0  0  0  0  0  0  0
    3.4503    0.9931    0.0611 C   0  0  0  0  0  0  0  0  0  0  0  0
    4.1644   -0.1907    0.4611 N   0  0  0  0  0  0  0  0  0  0  0  0
    3.4454   -1.0282   -0.4593 C   0  0  0  0  0  0  0  0  0  0  0  0
    0.9939   -0.2004    1.2144 N   0  0  0  0  0  0  0  0  0  0  0  0
   -0.3961   -0.2282    1.3979 N   0  0  0  0  0  0  0  0  0  0  0  0
   -2.5297   -2.1035   -0.3806 H   0  0  0  0  0  0  0  0  0  0  0  0
   -4.0040   -1.3590    0.4577 H   0  0  0  0  0  0  0  0  0  0  0  0
   -2.4428   -1.5760    1.3176 H   0  0  0  0  0  0  0  0  0  0  0  0
   -1.7664    0.7772   -2.0244 H   0  0  0  0  0  0  0  0  0  0  0  0
   -3.4311    1.1788   -1.5359 H   0  0  0  0  0  0  0  0  0  0  0  0
   -3.0491   -0.5106   -2.0726 H   0  0  0  0  0  0  0  0  0  0  0  0
   -2.8379    0.7444    1.9109 H   0  0  0  0  0  0  0  0  0  0  0  0
   -2.4750    2.0394    0.7169 H   0  0  0  0  0  0  0  0  0  0  0  0
   -4.0747    1.2084    0.6776 H   0  0  0  0  0  0  0  0  0  0  0  0
    1.6923    0.5149   -2.5676 H   0  0  0  0  0  0  0  0  0  0  0  0
    4.0154    1.7240   -0.5309 H   0  0  0  0  0  0  0  0  0  0  0  0
    2.9686    1.4791    0.9312 H   0  0  0  0  0  0  0  0  0  0  0  0
    4.0822   -0.4648    1.4447 H   0  0  0  0  0  0  0  0  0  0  0  0
    4.0931   -1.3576   -1.3045 H   0  0  0  0  0  0  0  0  0  0  0  0
    2.8639   -1.8149    0.0414 H   0  0  0  0  0  0  0  0  0  0  0  0
    1.7347   -0.3389    1.9382 H   0  0  0  0  0  0  0  0  0  0  0  0
   -0.8497   -0.3977    2.3178 H   0  0  0  0  0  0  0  0  0  0  0  0
  1  2  1  0
  2  3  1  0
  2  4  1  0
  2  5  1  0
  5  6  2  0
  6  7  2  0
  7  8  1  0
  8  9  1  0
  8 10  1  0
 10 11  1  0
 11 12  1  0
  7 13  1  0
 13 14  1  0
 14  5  1  0
 12  8  1  0
  1 15  1  0
  1 16  1  0
  1 17  1  0
  3 18  1  0
  3 19  1  0
  3 20  1  0
  4 21  1  0
  4 22  1  0
  4 23  1  0
  9 24  1  0
 10 25  1  0
 10 26  1  0
 11 27  1  0
 12 28  1  0
 12 29  1  0
 13 30  1  0
 14 31  1  0
M  CHG  1   5   1
M  END
$$$$

     RDKit          3D

 31 32  0  0  0  0  0  0  0  0999 V2000
   -3.3641    0.3732    0.2998 C   0  0  0  0  0  0  0  0  0  0  0  0
   -2.2681    0.0265   -0.6935 C   0  0  0  0  0  0  0  0  0  0  0  0
   -2.6928   -1.2203   -1.4368 C   0  0  0  0  0  0  0  0  0  0  0  0
   -2.1741    1.1657   -1.6684 C   0  0  0  0  0  0  0  0  0  0  0  0
   -1.0308   -0.1683    0.0311 N   0  0  0  0  0  4  0  0  0  0  0  0
    0.0847    0.4662   -0.0825 C   0  0  0  0  0  0  0  0  0  0  0  0
    1.1178   -0.0404    0.5702 C   0  0  0  0  0  0  0  0  0  0  0  0
    2.5385    0.3081    0.5172 C   0  0  0  0  0  0  0  0  0  0  0  0
    3.1070    0.7327    1.7111 O   0  0  0  0  0  0  0  0  0  0  0  0
    3.3930   -0.8211   -0.0665 C   0  0  0  0  0  0  0  0  0  0  0  0
    4.1737    0.1960   -0.7442 N   0  0  0  0  0  0  0  0  0  0  0  0
    2.9963    1.0453   -0.7103 C   0  0  0  0  0  0  0  0  0  0  0  0
    0.5532   -1.0530    1.3860 N   0  0  0  0  0  0  0  0  0  0  0  0
   -0.7933   -1.1191    1.0345 N   0  0  0  0  0  0  0  0  0  0  0  0
   -3.6458   -0.5583    0.8201 H   0  0  0  0  0  0  0  0  0  0  0  0
   -4.2027    0.8996   -0.1701 H   0  0  0  0  0  0  0  0  0  0  0  0
   -2.8822    1.0865    1.0310 H   0  0  0  0  0  0  0  0  0  0  0  0
   -1.9427   -1.9974   -1.2470 H   0  0  0  0  0  0  0  0  0  0  0  0
   -2.7714   -1.0180   -2.5387 H   0  0  0  0  0  0  0  0  0  0  0  0
   -3.6795   -1.5990   -1.1203 H   0  0  0  0  0  0  0  0  0  0  0  0
   -3.0580    1.0924   -2.3446 H   0  0  0  0  0  0  0  0  0  0  0  0
   -2.3054    2.1447   -1.1247 H   0  0  0  0  0  0  0  0  0  0  0  0
   -1.2313    1.1709   -2.2511 H   0  0  0  0  0  0  0  0  0  0  0  0
    3.2935    1.6984    1.7273 H   0  0  0  0  0  0  0  0  0  0  0  0
    3.9425   -1.3992    0.7073 H   0  0  0  0  0  0  0  0  0  0  0  0
    2.8076   -1.4918   -0.7480 H   0  0  0  0  0  0  0  0  0  0  0  0
    4.9449    0.5250   -0.1142 H   0  0  0  0  0  0  0  0  0  0  0  0
    2.3316    0.8576   -1.5637 H   0  0  0  0  0  0  0  0  0  0  0  0
    3.3087    2.0931   -0.5601 H   0  0  0  0  0  0  0  0  0  0  0  0
    0.9949   -1.6511    2.1075 H   0  0  0  0  0  0  0  0  0  0  0  0
   -1.5457   -1.7449    1.4139 H   0  0  0  0  0  0  0  0  0  0  0  0
  1  2  1  0
  2  3  1  0
  2  4  1  0
  2  5  1  0
  5  6  2  0
  6  7  2  0
  7  8  1  0
  8  9  1  0
  8 10  1  0
 10 11  1  0
 11 12  1  0
  7 13  1  0
 13 14  1  0
 14  5  1  0
 12  8  1  0
  1 15  1  0
  1 16  1  0
  1 17  1  0
  3 18  1  0
  3 19  1  0
  3 20  1  0
  4 21  1  0
  4 22  1  0
  4 23  1  0
  9 24  1  0
 10 25  1  0
 10 26  1  0
 11 27  1  0
 12 28  1  0
 12 29  1  0
 13 30  1  0
 14 31  1  0
M  CHG  1   5   1
M  END
$$$$

     RDKit          3D

 31 32  0  0  0  0  0  0  0  0999 V2000
   -2.4521   -1.5023    0.1647 C   0  0  0  0  0  0  0  0  0  0  0  0
   -2.3238    0.0072    0.1226 C   0  0  0  0  0  0  0  0  0  0  0  0
   -2.6317    0.5962    1.4782 C   0  0  0  0  0  0  0  0  0  0  0  0
   -3.3736    0.5179   -0.8465 C   0  0  0  0  0  0  0  0  0  0  0  0
   -0.9864    0.3153   -0.3290 N   0  0  0  0  0  4  0  0  0  0  0  0
   -0.0391   -0.5011   -0.6497 C   0  0  0  0  0  0  0  0  0  0  0  0
    1.1623   -0.0019   -0.4685 C   0  0  0  0  0  0  0  0  0  0  0  0
    2.3959   -0.7404   -0.1763 C   0  0  0  0  0  0  0  0  0  0  0  0
    2.1241   -2.1132   -0.1362 O   0  0  0  0  0  0  0  0  0  0  0  0
    3.1338   -0.2051    0.9991 C   0  0  0  0  0  0  0  0  0  0  0  0
    4.0353    0.4843    0.1204 N   0  0  0  0  0  0  0  0  0  0  0  0
    3.5972   -0.3536   -0.9563 C   0  0  0  0  0  0  0  0  0  0  0  0
    0.9953    1.4092   -0.6175 N   0  0  0  0  0  0  0  0  0  0  0  0
   -0.4072    1.5931   -0.5237 N   0  0  0  0  0  0  0  0  0  0  0  0
   -2.0396   -1.9326    1.0949 H   0  0  0  0  0  0  0  0  0  0  0  0
   -1.8455   -1.9100   -0.6785 H   0  0  0  0  0  0  0  0  0  0  0  0
   -3.5050   -1.7736   -0.0251 H   0  0  0  0  0  0  0  0  0  0  0  0
   -3.6944    0.4012    1.6847 H   0  0  0  0  0  0  0  0  0  0  0  0
   -2.5063    1.6991    1.4181 H   0  0  0  0  0  0  0  0  0  0  0  0
   -2.0055    0.1517    2.2639 H   0  0  0  0  0  0  0  0  0  0  0  0
   -3.0384    1.4527   -1.3661 H   0  0  0  0  0  0  0  0  0  0  0  0
   -4.3412    0.7265   -0.3375 H   0  0  0  0  0  0  0  0  0  0  0  0
   -3.5620   -0.2287   -1.6490 H   0  0  0  0  0  0  0  0  0  0  0  0
    2.8211   -2.5505    0.4121 H   0  0  0  0  0  0  0  0  0  0  0  0
    3.6287   -1.0284    1.5546 H   0  0  0  0  0  0  0  0  0  0  0  0
    2.5633    0.4478    1.6906 H   0  0  0  0  0  0  0  0  0  0  0  0
    3.8529    1.4898    0.0235 H   0  0  0  0  0  0  0  0  0  0  0  0
    4.3020   -1.2200   -1.0585 H   0  0  0  0  0  0  0  0  0  0  0  0
    3.3582    0.1538   -1.9079 H   0  0  0  0  0  0  0  0  0  0  0  0
    1.7109    2.1432   -0.7617 H   0  0  0  0  0  0  0  0  0  0  0  0
   -0.9291    2.4724   -0.5822 H   0  0  0  0  0  0  0  0  0  0  0  0
  1  2  1  0
  2  3  1  0
  2  4  1  0
  2  5  1  0
  5  6  2  0
  6  7  2  0
  7  8  1  0
  8  9  1  0
  8 10  1  0
 10 11  1  0
 11 12  1  0
  7 13  1  0
 13 14  1  0
 14  5  1  0
 12  8  1  0
  1 15  1  0
  1 16  1  0
  1 17  1  0
  3 18  1  0
  3 19  1  0
  3 20  1  0
  4 21  1  0
  4 22  1  0
  4 23  1  0
  9 24  1  0
 10 25  1  0
 10 26  1  0
 11 27  1  0
 12 28  1  0
 12 29  1  0
 13 30  1  0
 14 31  1  0
M  CHG  1   5   1
M  END
$$$$

     RDKit          3D

 31 32  0  0  0  0  0  0  0  0999 V2000
   -3.2809   -0.3352   -0.8594 C   0  0  0  0  0  0  0  0  0  0  0  0
   -2.2900    0.0165    0.2251 C   0  0  0  0  0  0  0  0  0  0  0  0
   -2.3132    1.5180    0.4139 C   0  0  0  0  0  0  0  0  0  0  0  0
   -2.7885   -0.6350    1.5118 C   0  0  0  0  0  0  0  0  0  0  0  0
   -0.9556   -0.4294   -0.0779 N   0  0  0  0  0  4  0  0  0  0  0  0
    0.0976    0.3020   -0.2007 C   0  0  0  0  0  0  0  0  0  0  0  0
    1.2006   -0.3297   -0.4888 C   0  0  0  0  0  0  0  0  0  0  0  0
    2.5576    0.1780   -0.7056 C   0  0  0  0  0  0  0  0  0  0  0  0
    3.1045   -0.0863   -1.9619 O   0  0  0  0  0  0  0  0  0  0  0  0
    2.7943    1.6019   -0.2486 C   0  0  0  0  0  0  0  0  0  0  0  0
    4.1498    1.1745    0.1226 N   0  0  0  0  0  0  0  0  0  0  0  0
    3.5551   -0.1395    0.3973 C   0  0  0  0  0  0  0  0  0  0  0  0
    0.8219   -1.6984   -0.5600 N   0  0  0  0  0  0  0  0  0  0  0  0
   -0.5593   -1.7484   -0.2952 N   0  0  0  0  0  0  0  0  0  0  0  0
   -3.8376   -1.2717   -0.6439 H   0  0  0  0  0  0  0  0  0  0  0  0
   -2.7108   -0.4963   -1.8153 H   0  0  0  0  0  0  0  0  0  0  0  0
   -4.0485    0.4558   -0.9900 H   0  0  0  0  0  0  0  0  0  0  0  0
   -2.8557    2.0249   -0.4101 H   0  0  0  0  0  0  0  0  0  0  0  0
   -2.7437    1.7875    1.4089 H   0  0  0  0  0  0  0  0  0  0  0  0
   -1.2636    1.8952    0.4237 H   0  0  0  0  0  0  0  0  0  0  0  0
   -2.1909   -1.5377    1.7414 H   0  0  0  0  0  0  0  0  0  0  0  0
   -2.6675    0.0680    2.3560 H   0  0  0  0  0  0  0  0  0  0  0  0
   -3.8589   -0.9188    1.4258 H   0  0  0  0  0  0  0  0  0  0  0  0
    3.0806   -1.0659   -2.1235 H   0  0  0  0  0  0  0  0  0  0  0  0
    2.2398    1.8569    0.6605 H   0  0  0  0  0  0  0  0  0  0  0  0
    2.7627    2.3335   -1.0779 H   0  0  0  0  0  0  0  0  0  0  0  0
    4.5007    1.6556    0.9812 H   0  0  0  0  0  0  0  0  0  0  0  0
    3.0574   -0.1001    1.3689 H   0  0  0  0  0  0  0  0  0  0  0  0
    4.2241   -0.9826    0.2042 H   0  0  0  0  0  0  0  0  0  0  0  0
    1.4195   -2.5283   -0.7648 H   0  0  0  0  0  0  0  0  0  0  0  0
   -1.2017   -2.5650   -0.2563 H   0  0  0  0  0  0  0  0  0  0  0  0
  1  2  1  0
  2  3  1  0
  2  4  1  0
  2  5  1  0
  5  6  2  0
  6  7  2  0
  7  8  1  0
  8  9  1  0
  8 10  1  0
 10 11  1  0
 11 12  1  0
  7 13  1  0
 13 14  1  0
 14  5  1  0
 12  8  1  0
  1 15  1  0
  1 16  1  0
  1 17  1  0
  3 18  1  0
  3 19  1  0
  3 20  1  0
  4 21  1  0
  4 22  1  0
  4 23  1  0
  9 24  1  0
 10 25  1  0
 10 26  1  0
 11 27  1  0
 12 28  1  0
 12 29  1  0
 13 30  1  0
 14 31  1  0
M  CHG  1   5   1
M  END
$$$$

     RDKit          3D

 31 32  0  0  0  0  0  0  0  0999 V2000
   -1.9571    1.8704   -0.5606 C   0  0  0  0  0  0  0  0  0  0  0  0
   -2.2221    0.4515   -0.1291 C   0  0  0  0  0  0  0  0  0  0  0  0
   -2.7610    0.4869    1.3080 C   0  0  0  0  0  0  0  0  0  0  0  0
   -3.3287   -0.0932   -0.9853 C   0  0  0  0  0  0  0  0  0  0  0  0
   -1.0045   -0.3083   -0.2051 N   0  0  0  0  0  4  0  0  0  0  0  0
    0.1744    0.0695   -0.5702 C   0  0  0  0  0  0  0  0  0  0  0  0
    1.1593   -0.7521   -0.3417 C   0  0  0  0  0  0  0  0  0  0  0  0
    2.6180   -0.5450   -0.4264 C   0  0  0  0  0  0  0  0  0  0  0  0
    3.2552   -1.3943   -1.3475 O   0  0  0  0  0  0  0  0  0  0  0  0
    3.2908   -0.4629    0.9196 C   0  0  0  0  0  0  0  0  0  0  0  0
    3.0082    0.9754    0.9087 N   0  0  0  0  0  0  0  0  0  0  0  0
    3.0486    0.8978   -0.5471 C   0  0  0  0  0  0  0  0  0  0  0  0
    0.5438   -1.9772    0.0323 N   0  0  0  0  0  0  0  0  0  0  0  0
   -0.8379   -1.6624    0.1117 N   0  0  0  0  0  0  0  0  0  0  0  0
   -1.5833    1.8526   -1.5814 H   0  0  0  0  0  0  0  0  0  0  0  0
   -2.8359    2.5142   -0.4152 H   0  0  0  0  0  0  0  0  0  0  0  0
   -1.1425    2.2672    0.0962 H   0  0  0  0  0  0  0  0  0  0  0  0
   -1.9255    0.4391    2.0347 H   0  0  0  0  0  0  0  0  0  0  0  0
   -3.3866   -0.4317    1.4104 H   0  0  0  0  0  0  0  0  0  0  0  0
   -3.3505    1.4197    1.3874 H   0  0  0  0  0  0  0  0  0  0  0  0
   -3.2156    0.1656   -2.0564 H   0  0  0  0  0  0  0  0  0  0  0  0
   -4.2736    0.4287   -0.6520 H   0  0  0  0  0  0  0  0  0  0  0  0
   -3.5173   -1.1789   -0.8206 H   0  0  0  0  0  0  0  0  0  0  0  0
    3.5932   -2.1558   -0.8071 H   0  0  0  0  0  0  0  0  0  0  0  0
    4.3471   -0.7293    0.8368 H   0  0  0  0  0  0  0  0  0  0  0  0
    2.7636   -0.9585    1.7566 H   0  0  0  0  0  0  0  0  0  0  0  0
    3.7401    1.5545    1.3421 H   0  0  0  0  0  0  0  0  0  0  0  0
    4.1063    0.9498   -0.8720 H   0  0  0  0  0  0  0  0  0  0  0  0
    2.3402    1.5643   -1.0607 H   0  0  0  0  0  0  0  0  0  0  0  0
    0.9396   -2.9125    0.2192 H   0  0  0  0  0  0  0  0  0  0  0  0
   -1.5864   -2.3450    0.3663 H   0  0  0  0  0  0  0  0  0  0  0  0
  1  2  1  0
  2  3  1  0
  2  4  1  0
  2  5  1  0
  5  6  2  0
  6  7  2  0
  7  8  1  0
  8  9  1  0
  8 10  1  0
 10 11  1  0
 11 12  1  0
  7 13  1  0
 13 14  1  0
 14  5  1  0
 12  8  1  0
  1 15  1  0
  1 16  1  0
  1 17  1  0
  3 18  1  0
  3 19  1  0
  3 20  1  0
  4 21  1  0
  4 22  1  0
  4 23  1  0
  9 24  1  0
 10 25  1  0
 10 26  1  0
 11 27  1  0
 12 28  1  0
 12 29  1  0
 13 30  1  0
 14 31  1  0
M  CHG  1   5   1
M  END
$$$$

     RDKit          3D

 31 32  0  0  0  0  0  0  0  0999 V2000
   -3.1988    0.7702    0.9202 C   0  0  0  0  0  0  0  0  0  0  0  0
   -2.2862    0.0293   -0.0333 C   0  0  0  0  0  0  0  0  0  0  0  0
   -2.4307   -1.4496    0.2410 C   0  0  0  0  0  0  0  0  0  0  0  0
   -2.6922    0.2694   -1.4724 C   0  0  0  0  0  0  0  0  0  0  0  0
   -0.9388    0.4328    0.2414 N   0  0  0  0  0  4  0  0  0  0  0  0
    0.0326   -0.3338    0.6077 C   0  0  0  0  0  0  0  0  0  0  0  0
    1.2261    0.1304    0.2725 C   0  0  0  0  0  0  0  0  0  0  0  0
    2.3845   -0.7377    0.0543 C   0  0  0  0  0  0  0  0  0  0  0  0
    2.0858   -2.1108    0.2479 O   0  0  0  0  0  0  0  0  0  0  0  0
    3.5740   -0.3014    0.8674 C   0  0  0  0  0  0  0  0  0  0  0  0
    4.1371    0.3074   -0.3054 N   0  0  0  0  0  0  0  0  0  0  0  0
    3.2475   -0.4685   -1.1213 C   0  0  0  0  0  0  0  0  0  0  0  0
    1.0405    1.5155    0.2054 N   0  0  0  0  0  0  0  0  0  0  0  0
   -0.3548    1.7085    0.1854 N   0  0  0  0  0  0  0  0  0  0  0  0
   -3.3529    1.7840    0.5396 H   0  0  0  0  0  0  0  0  0  0  0  0
   -2.6600    0.8314    1.9000 H   0  0  0  0  0  0  0  0  0  0  0  0
   -4.1299    0.1818    1.0084 H   0  0  0  0  0  0  0  0  0  0  0  0
   -1.5498   -2.0247   -0.1333 H   0  0  0  0  0  0  0  0  0  0  0  0
   -2.6491   -1.6658    1.3108 H   0  0  0  0  0  0  0  0  0  0  0  0
   -3.3190   -1.8011   -0.3280 H   0  0  0  0  0  0  0  0  0  0  0  0
   -2.0042    1.0279   -1.8796 H   0  0  0  0  0  0  0  0  0  0  0  0
   -3.7518    0.5815   -1.5558 H   0  0  0  0  0  0  0  0  0  0  0  0
   -2.5740   -0.6505   -2.0522 H   0  0  0  0  0  0  0  0  0  0  0  0
    1.2690   -2.1331    0.8243 H   0  0  0  0  0  0  0  0  0  0  0  0
    4.2008   -1.1352    1.2461 H   0  0  0  0  0  0  0  0  0  0  0  0
    3.2945    0.4472    1.6609 H   0  0  0  0  0  0  0  0  0  0  0  0
    3.9457    1.3290   -0.3239 H   0  0  0  0  0  0  0  0  0  0  0  0
    2.7820    0.0688   -1.9724 H   0  0  0  0  0  0  0  0  0  0  0  0
    3.7251   -1.4244   -1.4736 H   0  0  0  0  0  0  0  0  0  0  0  0
    1.8037    2.2229    0.1782 H   0  0  0  0  0  0  0  0  0  0  0  0
   -0.8568    2.5985    0.1393 H   0  0  0  0  0  0  0  0  0  0  0  0
  1  2  1  0
  2  3  1  0
  2  4  1  0
  2  5  1  0
  5  6  2  0
  6  7  2  0
  7  8  1  0
  8  9  1  0
  8 10  1  0
 10 11  1  0
 11 12  1  0
  7 13  1  0
 13 14  1  0
 14  5  1  0
 12  8  1  0
  1 15  1  0
  1 16  1  0
  1 17  1  0
  3 18  1  0
  3 19  1  0
  3 20  1  0
  4 21  1  0
  4 22  1  0
  4 23  1  0
  9 24  1  0
 10 25  1  0
 10 26  1  0
 11 27  1  0
 12 28  1  0
 12 29  1  0
 13 30  1  0
 14 31  1  0
M  CHG  1   5   1
M  END
$$$$

     RDKit          3D

 31 32  0  0  0  0  0  0  0  0999 V2000
   -3.0471    1.1055    0.5224 C   0  0  0  0  0  0  0  0  0  0  0  0
   -2.2780    0.0394   -0.2451 C   0  0  0  0  0  0  0  0  0  0  0  0
   -3.0816   -1.2399   -0.1332 C   0  0  0  0  0  0  0  0  0  0  0  0
   -2.2104    0.4499   -1.6764 C   0  0  0  0  0  0  0  0  0  0  0  0
   -0.9570   -0.1138    0.3547 N   0  0  0  0  0  4  0  0  0  0  0  0
    0.1891    0.0532   -0.1690 C   0  0  0  0  0  0  0  0  0  0  0  0
    1.2155   -0.3316    0.5377 C   0  0  0  0  0  0  0  0  0  0  0  0
    2.6379   -0.4584    0.1852 C   0  0  0  0  0  0  0  0  0  0  0  0
    3.1373   -1.7379    0.3205 O   0  0  0  0  0  0  0  0  0  0  0  0
    3.4711    0.5053    1.0369 C   0  0  0  0  0  0  0  0  0  0  0  0
    4.1445    1.0051   -0.1539 N   0  0  0  0  0  0  0  0  0  0  0  0
    3.1316    0.3517   -0.9620 C   0  0  0  0  0  0  0  0  0  0  0  0
    0.6903   -0.6379    1.8247 N   0  0  0  0  0  0  0  0  0  0  0  0
   -0.7042   -0.4901    1.6777 N   0  0  0  0  0  0  0  0  0  0  0  0
   -3.9600    1.3930   -0.0162 H   0  0  0  0  0  0  0  0  0  0  0  0
   -2.3476    1.9527    0.6745 H   0  0  0  0  0  0  0  0  0  0  0  0
   -3.2706    0.6510    1.5212 H   0  0  0  0  0  0  0  0  0  0  0  0
   -2.9872   -1.7159    0.8551 H   0  0  0  0  0  0  0  0  0  0  0  0
   -2.8594   -1.9426   -0.9655 H   0  0  0  0  0  0  0  0  0  0  0  0
   -4.1526   -0.9544   -0.2485 H   0  0  0  0  0  0  0  0  0  0  0  0
   -1.3707    1.1420   -1.9018 H   0  0  0  0  0  0  0  0  0  0  0  0
   -3.1392    0.9778   -1.9854 H   0  0  0  0  0  0  0  0  0  0  0  0
   -2.1710   -0.4774   -2.3110 H   0  0  0  0  0  0  0  0  0  0  0  0
    2.8043   -2.0773    1.2077 H   0  0  0  0  0  0  0  0  0  0  0  0
    4.1605    0.0128    1.7384 H   0  0  0  0  0  0  0  0  0  0  0  0
    2.8624    1.3253    1.4839 H   0  0  0  0  0  0  0  0  0  0  0  0
    4.2007    2.0276   -0.2390 H   0  0  0  0  0  0  0  0  0  0  0  0
    3.6628   -0.3194   -1.6992 H   0  0  0  0  0  0  0  0  0  0  0  0
    2.4223    1.0477   -1.4374 H   0  0  0  0  0  0  0  0  0  0  0  0
    1.2237   -0.9121    2.6879 H   0  0  0  0  0  0  0  0  0  0  0  0
   -1.4174   -0.6313    2.4063 H   0  0  0  0  0  0  0  0  0  0  0  0
  1  2  1  0
  2  3  1  0
  2  4  1  0
  2  5  1  0
  5  6  2  0
  6  7  2  0
  7  8  1  0
  8  9  1  0
  8 10  1  0
 10 11  1  0
 11 12  1  0
  7 13  1  0
 13 14  1  0
 14  5  1  0
 12  8  1  0
  1 15  1  0
  1 16  1  0
  1 17  1  0
  3 18  1  0
  3 19  1  0
  3 20  1  0
  4 21  1  0
  4 22  1  0
  4 23  1  0
  9 24  1  0
 10 25  1  0
 10 26  1  0
 11 27  1  0
 12 28  1  0
 12 29  1  0
 13 30  1  0
 14 31  1  0
M  CHG  1   5   1
M  END
$$$$
