
     RDKit          3D

 17 16  0  0  0  0  0  0  0  0999 V2000
   -2.1036    0.0336   -0.2129 C   0  0  0  0  0  0  0  0  0  0  0  0
   -0.8197    0.4339    0.4440 C   0  0  1  0  0  0  0  0  0  0  0  0
   -0.6692   -0.0838    1.7158 O   0  0  0  0  0  0  0  0  0  0  0  0
    0.3622    0.0047   -0.4055 C   0  0  2  0  0  0  0  0  0  0  0  0
    0.4679   -1.3586   -0.5072 O   0  0  0  0  0  0  0  0  0  0  0  0
    1.6283    0.5645    0.1223 C   0  0  0  0  0  0  0  0  0  0  0  0
    2.6898   -0.3063    0.4262 N   0  0  0  0  0  0  0  0  0  0  0  0
    1.7551    1.8059    0.2976 O   0  0  0  0  0  0  0  0  0  0  0  0
   -2.7448    0.9292   -0.4076 H   0  0  0  0  0  0  0  0  0  0  0  0
   -1.9241   -0.4261   -1.2169 H   0  0  0  0  0  0  0  0  0  0  0  0
   -2.6397   -0.7207    0.4038 H   0  0  0  0  0  0  0  0  0  0  0  0
   -0.7620    1.5561    0.4906 H   0  0  0  0  0  0  0  0  0  0  0  0
   -1.4361    0.1939    2.2540 H   0  0  0  0  0  0  0  0  0  0  0  0
    0.2034    0.4999   -1.4054 H   0  0  0  0  0  0  0  0  0  0  0  0
   -0.2324   -1.8727   -0.0638 H   0  0  0  0  0  0  0  0  0  0  0  0
    3.6606    0.0718    0.4250 H   0  0  0  0  0  0  0  0  0  0  0  0
    2.5644   -1.3253    0.6569 H   0  0  0  0  0  0  0  0  0  0  0  0
  1  2  1  0
  2  3  1  0
  2  4  1  0
  4  5  1  0
  4  6  1  0
  6  7  1  0
  6  8  2  0
  1  9  1  0
  1 10  1  0
  1 11  1  0
  2 12  1  1
  3 13  1  0
  4 14  1  6
  5 15  1  0
  7 16  1  0
  7 17  1  0
M  END
$$$$

     RDKit          3D

 17 16  0  0  0  0  0  0  0  0999 V2000
   -1.9498    0.6810    0.1218 C   0  0  0  0  0  0  0  0  0  0  0  0
   -0.5333    0.3271    0.5690 C   0  0  1  0  0  0  0  0  0  0  0  0
   -0.6521   -0.8091    1.3679 O   0  0  0  0  0  0  0  0  0  0  0  0
    0.2390    0.0124   -0.6969 C   0  0  2  0  0  0  0  0  0  0  0  0
   -0.4783   -0.9757   -1.3645 O   0  0  0  0  0  0  0  0  0  0  0  0
    1.5943   -0.4605   -0.4475 C   0  0  0  0  0  0  0  0  0  0  0  0
    2.5731    0.3465    0.2294 N   0  0  0  0  0  0  0  0  0  0  0  0
    1.9259   -1.6086   -0.8330 O   0  0  0  0  0  0  0  0  0  0  0  0
   -2.6091    0.8992    0.9861 H   0  0  0  0  0  0  0  0  0  0  0  0
   -2.3366   -0.2137   -0.4262 H   0  0  0  0  0  0  0  0  0  0  0  0
   -1.8916    1.5467   -0.5529 H   0  0  0  0  0  0  0  0  0  0  0  0
   -0.0746    1.1657    1.1337 H   0  0  0  0  0  0  0  0  0  0  0  0
   -1.4640   -1.3148    1.1226 H   0  0  0  0  0  0  0  0  0  0  0  0
    0.2158    0.9450   -1.3050 H   0  0  0  0  0  0  0  0  0  0  0  0
   -0.4131   -1.8310   -0.8609 H   0  0  0  0  0  0  0  0  0  0  0  0
    2.2856    1.2261    0.7054 H   0  0  0  0  0  0  0  0  0  0  0  0
    3.5688    0.0638    0.2510 H   0  0  0  0  0  0  0  0  0  0  0  0
  1  2  1  0
  2  3  1  0
  2  4  1  0
  4  5  1  0
  4  6  1  0
  6  7  1  0
  6  8  2  0
  1  9  1  0
  1 10  1  0
  1 11  1  0
  2 12  1  1
  3 13  1  0
  4 14  1  6
  5 15  1  0
  7 16  1  0
  7 17  1  0
M  END
$$$$

     RDKit          3D

 17 16  0  0  0  0  0  0  0  0999 V2000
    0.8528    1.3847   -0.3123 C   0  0  0  0  0  0  0  0  0  0  0  0
    0.8967   -0.0618   -0.7373 C   0  0  1  0  0  0  0  0  0  0  0  0
    2.2252   -0.4824   -0.5146 O   0  0  0  0  0  0  0  0  0  0  0  0
   -0.0551   -0.8718    0.1270 C   0  0  2  0  0  0  0  0  0  0  0  0
    0.0871   -2.2180   -0.2156 O   0  0  0  0  0  0  0  0  0  0  0  0
   -1.4494   -0.4090   -0.0953 C   0  0  0  0  0  0  0  0  0  0  0  0
   -1.7868    0.9289    0.2104 N   0  0  0  0  0  0  0  0  0  0  0  0
   -2.2782   -1.2384   -0.5510 O   0  0  0  0  0  0  0  0  0  0  0  0
    1.8348    1.8438   -0.5913 H   0  0  0  0  0  0  0  0  0  0  0  0
    0.7580    1.3801    0.8090 H   0  0  0  0  0  0  0  0  0  0  0  0
    0.0863    1.9796   -0.8061 H   0  0  0  0  0  0  0  0  0  0  0  0
    0.6621   -0.2326   -1.7895 H   0  0  0  0  0  0  0  0  0  0  0  0
    2.3368   -1.3803   -0.8910 H   0  0  0  0  0  0  0  0  0  0  0  0
    0.1614   -0.7467    1.2057 H   0  0  0  0  0  0  0  0  0  0  0  0
   -0.4658   -2.8087    0.3326 H   0  0  0  0  0  0  0  0  0  0  0  0
   -1.6159    1.3974    1.1269 H   0  0  0  0  0  0  0  0  0  0  0  0
   -2.2500    1.5352   -0.5175 H   0  0  0  0  0  0  0  0  0  0  0  0
  1  2  1  0
  2  3  1  0
  2  4  1  0
  4  5  1  0
  4  6  1  0
  6  7  1  0
  6  8  2  0
  1  9  1  0
  1 10  1  0
  1 11  1  0
  2 12  1  6
  3 13  1  0
  4 14  1  1
  5 15  1  0
  7 16  1  0
  7 17  1  0
M  END
$$$$

     RDKit          3D

 17 16  0  0  0  0  0  0  0  0999 V2000
   -2.0319    0.4161   -0.0349 C   0  0  0  0  0  0  0  0  0  0  0  0
   -0.5465    0.4830    0.2876 C   0  0  1  0  0  0  0  0  0  0  0  0
   -0.2893    0.0108    1.5797 O   0  0  0  0  0  0  0  0  0  0  0  0
    0.1663   -0.4256   -0.6870 C   0  0  2  0  0  0  0  0  0  0  0  0
   -0.3107   -1.7146   -0.5414 O   0  0  0  0  0  0  0  0  0  0  0  0
    1.6242   -0.4290   -0.5156 C   0  0  0  0  0  0  0  0  0  0  0  0
    2.4041    0.7652   -0.6109 N   0  0  0  0  0  0  0  0  0  0  0  0
    2.2226   -1.4933   -0.2791 O   0  0  0  0  0  0  0  0  0  0  0  0
   -2.3548    1.3446   -0.5208 H   0  0  0  0  0  0  0  0  0  0  0  0
   -2.5813    0.3475    0.9453 H   0  0  0  0  0  0  0  0  0  0  0  0
   -2.2928   -0.4955   -0.5952 H   0  0  0  0  0  0  0  0  0  0  0  0
   -0.1811    1.5037    0.1346 H   0  0  0  0  0  0  0  0  0  0  0  0
   -1.1200   -0.4633    1.8677 H   0  0  0  0  0  0  0  0  0  0  0  0
   -0.0992   -0.1039   -1.7262 H   0  0  0  0  0  0  0  0  0  0  0  0
    0.0047   -2.1223    0.3169 H   0  0  0  0  0  0  0  0  0  0  0  0
    2.1397    1.5161   -1.2514 H   0  0  0  0  0  0  0  0  0  0  0  0
    3.2459    0.8603   -0.0187 H   0  0  0  0  0  0  0  0  0  0  0  0
  1  2  1  0
  2  3  1  0
  2  4  1  0
  4  5  1  0
  4  6  1  0
  6  7  1  0
  6  8  2  0
  1  9  1  0
  1 10  1  0
  1 11  1  0
  2 12  1  1
  3 13  1  0
  4 14  1  6
  5 15  1  0
  7 16  1  0
  7 17  1  0
M  END
$$$$

     RDKit          3D

 17 16  0  0  0  0  0  0  0  0999 V2000
   -1.6805   -0.9238   -0.8046 C   0  0  0  0  0  0  0  0  0  0  0  0
   -0.9267    0.3392   -0.6267 C   0  0  1  0  0  0  0  0  0  0  0  0
   -1.8170    1.3324   -0.2108 O   0  0  0  0  0  0  0  0  0  0  0  0
    0.1658    0.2704    0.4120 C   0  0  2  0  0  0  0  0  0  0  0  0
    0.7603    1.5296    0.4432 O   0  0  0  0  0  0  0  0  0  0  0  0
    1.2021   -0.7191    0.1023 C   0  0  0  0  0  0  0  0  0  0  0  0
    2.5306   -0.3043   -0.1022 N   0  0  0  0  0  0  0  0  0  0  0  0
    0.9301   -1.9323    0.0152 O   0  0  0  0  0  0  0  0  0  0  0  0
   -1.6802   -1.6051    0.0581 H   0  0  0  0  0  0  0  0  0  0  0  0
   -1.2999   -1.4893   -1.6708 H   0  0  0  0  0  0  0  0  0  0  0  0
   -2.7683   -0.7046   -1.0170 H   0  0  0  0  0  0  0  0  0  0  0  0
   -0.4663    0.6232   -1.5841 H   0  0  0  0  0  0  0  0  0  0  0  0
   -1.5542    1.7650    0.6203 H   0  0  0  0  0  0  0  0  0  0  0  0
   -0.2633    0.1246    1.4293 H   0  0  0  0  0  0  0  0  0  0  0  0
    0.7749    1.9599   -0.4494 H   0  0  0  0  0  0  0  0  0  0  0  0
    2.7693    0.7187   -0.2110 H   0  0  0  0  0  0  0  0  0  0  0  0
    3.3235   -0.9843   -0.1540 H   0  0  0  0  0  0  0  0  0  0  0  0
  1  2  1  0
  2  3  1  0
  2  4  1  0
  4  5  1  0
  4  6  1  0
  6  7  1  0
  6  8  2  0
  1  9  1  0
  1 10  1  0
  1 11  1  0
  2 12  1  6
  3 13  1  0
  4 14  1  1
  5 15  1  0
  7 16  1  0
  7 17  1  0
M  END
$$$$

     RDKit          3D

 17 16  0  0  0  0  0  0  0  0999 V2000
   -1.4965    0.5790   -0.6794 C   0  0  0  0  0  0  0  0  0  0  0  0
   -1.1382   -0.5656    0.2380 C   0  0  1  0  0  0  0  0  0  0  0  0
   -1.0853   -1.7793   -0.4509 O   0  0  0  0  0  0  0  0  0  0  0  0
    0.2343   -0.3560    0.8503 C   0  0  2  0  0  0  0  0  0  0  0  0
    0.3131    0.8228    1.5659 O   0  0  0  0  0  0  0  0  0  0  0  0
    1.2905   -0.3440   -0.2036 C   0  0  0  0  0  0  0  0  0  0  0  0
    2.1871    0.7250   -0.3844 N   0  0  0  0  0  0  0  0  0  0  0  0
    1.4075   -1.3399   -0.9927 O   0  0  0  0  0  0  0  0  0  0  0  0
   -1.5603    0.2745   -1.7425 H   0  0  0  0  0  0  0  0  0  0  0  0
   -2.4788    1.0048   -0.4078 H   0  0  0  0  0  0  0  0  0  0  0  0
   -0.7492    1.4001   -0.6279 H   0  0  0  0  0  0  0  0  0  0  0  0
   -1.8568   -0.5881    1.0817 H   0  0  0  0  0  0  0  0  0  0  0  0
   -0.8840   -1.5606   -1.4095 H   0  0  0  0  0  0  0  0  0  0  0  0
    0.4542   -1.2020    1.5227 H   0  0  0  0  0  0  0  0  0  0  0  0
    0.3222    0.6832    2.5346 H   0  0  0  0  0  0  0  0  0  0  0  0
    2.5468    0.9596   -1.3232 H   0  0  0  0  0  0  0  0  0  0  0  0
    2.4934    1.2865    0.4288 H   0  0  0  0  0  0  0  0  0  0  0  0
  1  2  1  0
  2  3  1  0
  2  4  1  0
  4  5  1  0
  4  6  1  0
  6  7  1  0
  6  8  2  0
  1  9  1  0
  1 10  1  0
  1 11  1  0
  2 12  1  1
  3 13  1  0
  4 14  1  1
  5 15  1  0
  7 16  1  0
  7 17  1  0
M  END
$$$$

     RDKit          3D

 17 16  0  0  0  0  0  0  0  0999 V2000
    1.9031    0.8493   -0.0890 C   0  0  0  0  0  0  0  0  0  0  0  0
    0.4129    0.6330   -0.2340 C   0  0  1  0  0  0  0  0  0  0  0  0
    0.1231    0.8356   -1.6012 O   0  0  0  0  0  0  0  0  0  0  0  0
   -0.0130   -0.7407    0.1788 C   0  0  2  0  0  0  0  0  0  0  0  0
    0.6103   -1.7515   -0.5178 O   0  0  0  0  0  0  0  0  0  0  0  0
   -1.4749   -0.8569   -0.0636 C   0  0  0  0  0  0  0  0  0  0  0  0
   -2.3201    0.0998    0.5687 N   0  0  0  0  0  0  0  0  0  0  0  0
   -1.9665   -1.7410   -0.7826 O   0  0  0  0  0  0  0  0  0  0  0  0
    2.4532    0.3105   -0.8981 H   0  0  0  0  0  0  0  0  0  0  0  0
    2.0916    1.9309   -0.2406 H   0  0  0  0  0  0  0  0  0  0  0  0
    2.3038    0.4862    0.8710 H   0  0  0  0  0  0  0  0  0  0  0  0
   -0.0995    1.3630    0.4008 H   0  0  0  0  0  0  0  0  0  0  0  0
   -0.2033   -0.0035   -1.9785 H   0  0  0  0  0  0  0  0  0  0  0  0
    0.2007   -0.8560    1.2594 H   0  0  0  0  0  0  0  0  0  0  0  0
    1.2171   -1.4414   -1.2340 H   0  0  0  0  0  0  0  0  0  0  0  0
   -2.2816    1.1057    0.2524 H   0  0  0  0  0  0  0  0  0  0  0  0
   -2.9569   -0.2230    1.3309 H   0  0  0  0  0  0  0  0  0  0  0  0
  1  2  1  0
  2  3  1  0
  2  4  1  0
  4  5  1  0
  4  6  1  0
  6  7  1  0
  6  8  2  0
  1  9  1  0
  1 10  1  0
  1 11  1  0
  2 12  1  1
  3 13  1  0
  4 14  1  1
  5 15  1  0
  7 16  1  0
  7 17  1  0
M  END
$$$$

     RDKit          3D

 17 16  0  0  0  0  0  0  0  0999 V2000
   -1.6691   -0.0406   -0.4082 C   0  0  0  0  0  0  0  0  0  0  0  0
   -0.5916   -0.8086    0.3217 C   0  0  1  0  0  0  0  0  0  0  0  0
    0.1083   -1.6483   -0.5052 O   0  0  0  0  0  0  0  0  0  0  0  0
    0.3060    0.1533    1.0748 C   0  0  2  0  0  0  0  0  0  0  0  0
   -0.4465    0.9810    1.8971 O   0  0  0  0  0  0  0  0  0  0  0  0
    1.1255    0.9603    0.1380 C   0  0  0  0  0  0  0  0  0  0  0  0
    1.9743    0.3042   -0.7960 N   0  0  0  0  0  0  0  0  0  0  0  0
    1.0539    2.1947    0.1881 O   0  0  0  0  0  0  0  0  0  0  0  0
   -2.1965    0.6055    0.3239 H   0  0  0  0  0  0  0  0  0  0  0  0
   -1.2785    0.5245   -1.2744 H   0  0  0  0  0  0  0  0  0  0  0  0
   -2.4230   -0.7551   -0.8101 H   0  0  0  0  0  0  0  0  0  0  0  0
   -1.1128   -1.4382    1.0812 H   0  0  0  0  0  0  0  0  0  0  0  0
    0.1091   -2.6048   -0.1949 H   0  0  0  0  0  0  0  0  0  0  0  0
    0.9812   -0.4805    1.7084 H   0  0  0  0  0  0  0  0  0  0  0  0
   -0.5378    1.8916    1.5171 H   0  0  0  0  0  0  0  0  0  0  0  0
    2.2277   -0.6881   -0.7298 H   0  0  0  0  0  0  0  0  0  0  0  0
    2.3697    0.8491   -1.5995 H   0  0  0  0  0  0  0  0  0  0  0  0
  1  2  1  0
  2  3  1  0
  2  4  1  0
  4  5  1  0
  4  6  1  0
  6  7  1  0
  6  8  2  0
  1  9  1  0
  1 10  1  0
  1 11  1  0
  2 12  1  1
  3 13  1  0
  4 14  1  1
  5 15  1  0
  7 16  1  0
  7 17  1  0
M  END
$$$$
