
     RDKit          3D

 23 23  0  0  0  0  0  0  0  0999 V2000
    4.0945    0.3993   -0.1334 N   0  0  0  0  0  0  0  0  0  0  0  0
    2.9551   -0.4162    0.0198 C   0  0  0  0  0  0  0  0  0  0  0  0
    2.9840   -1.3386    0.8866 O   0  0  0  0  0  0  0  0  0  0  0  0
    1.6995   -0.2747   -0.7690 C   0  0  0  0  0  0  0  0  0  0  0  0
    0.7947    0.6263   -0.0357 C   0  0  0  0  0  0  0  0  0  0  0  0
    1.2240    1.7355    0.3546 O   0  0  0  0  0  0  0  0  0  0  0  0
   -0.5619    0.2830    0.2536 N   0  0  0  0  0  0  0  0  0  0  0  0
   -1.1323   -0.9844   -0.1312 C   0  0  0  0  0  0  0  0  0  0  0  0
   -2.5944   -1.1042   -0.0666 C   0  0  0  0  0  0  0  0  0  0  0  0
   -3.3001   -0.0326    0.3960 O   0  0  0  0  0  0  0  0  0  0  0  0
   -2.6544    1.1785    0.3425 C   0  0  0  0  0  0  0  0  0  0  0  0
   -1.3552    1.2022    0.9282 N   0  0  0  0  0  0  0  0  0  0  0  0
    5.0370   -0.0180   -0.0756 H   0  0  0  0  0  0  0  0  0  0  0  0
    3.9866    1.4123   -0.2964 H   0  0  0  0  0  0  0  0  0  0  0  0
    1.2752   -1.2197   -1.0851 H   0  0  0  0  0  0  0  0  0  0  0  0
    2.0163    0.2787   -1.7109 H   0  0  0  0  0  0  0  0  0  0  0  0
   -0.6536   -1.7235    0.5644 H   0  0  0  0  0  0  0  0  0  0  0  0
   -0.7532   -1.3098   -1.1366 H   0  0  0  0  0  0  0  0  0  0  0  0
   -3.0084   -1.3718   -1.0786 H   0  0  0  0  0  0  0  0  0  0  0  0
   -2.8702   -1.9845    0.5724 H   0  0  0  0  0  0  0  0  0  0  0  0
   -3.3064    1.8900    0.9310 H   0  0  0  0  0  0  0  0  0  0  0  0
   -2.5789    1.6224   -0.6818 H   0  0  0  0  0  0  0  0  0  0  0  0
   -1.2978    1.1499    1.9517 H   0  0  0  0  0  0  0  0  0  0  0  0
  1  2  1  0
  2  3  2  0
  2  4  1  0
  4  5  1  0
  5  6  2  0
  5  7  1  0
  7  8  1  0
  8  9  1  0
  9 10  1  0
 10 11  1  0
 11 12  1  0
 12  7  1  0
  1 13  1  0
  1 14  1  0
  4 15  1  0
  4 16  1  0
  8 17  1  0
  8 18  1  0
  9 19  1  0
  9 20  1  0
 11 21  1  0
 11 22  1  0
 12 23  1  0
M  END
$$$$

     RDKit          3D

 23 23  0  0  0  0  0  0  0  0999 V2000
    3.5864    0.3836    0.7298 N   0  0  0  0  0  0  0  0  0  0  0  0
    2.2569    0.5967    0.3018 C   0  0  0  0  0  0  0  0  0  0  0  0
    1.4233    1.0526    1.1169 O   0  0  0  0  0  0  0  0  0  0  0  0
    1.8778    0.2824   -1.0853 C   0  0  0  0  0  0  0  0  0  0  0  0
    0.4343    0.6208   -1.3262 C   0  0  0  0  0  0  0  0  0  0  0  0
    0.2120    1.6189   -2.0742 O   0  0  0  0  0  0  0  0  0  0  0  0
   -0.6274   -0.1188   -0.7627 N   0  0  0  0  0  0  0  0  0  0  0  0
   -1.9783    0.3095   -1.1082 C   0  0  0  0  0  0  0  0  0  0  0  0
   -2.8103    0.0913    0.1392 C   0  0  0  0  0  0  0  0  0  0  0  0
   -2.0603    0.0516    1.2924 O   0  0  0  0  0  0  0  0  0  0  0  0
   -1.1769   -1.0174    1.3457 C   0  0  0  0  0  0  0  0  0  0  0  0
   -0.5550   -1.1857    0.0855 N   0  0  0  0  0  0  0  0  0  0  0  0
    4.0049    0.9810    1.4677 H   0  0  0  0  0  0  0  0  0  0  0  0
    4.1336   -0.3780    0.2940 H   0  0  0  0  0  0  0  0  0  0  0  0
    2.5339    0.9043   -1.7423 H   0  0  0  0  0  0  0  0  0  0  0  0
    2.1004   -0.7600   -1.3135 H   0  0  0  0  0  0  0  0  0  0  0  0
   -2.3301   -0.3953   -1.8870 H   0  0  0  0  0  0  0  0  0  0  0  0
   -2.0334    1.3445   -1.4805 H   0  0  0  0  0  0  0  0  0  0  0  0
   -3.5181   -0.7618    0.0342 H   0  0  0  0  0  0  0  0  0  0  0  0
   -3.4738    1.0066    0.2187 H   0  0  0  0  0  0  0  0  0  0  0  0
   -1.6854   -1.9613    1.6542 H   0  0  0  0  0  0  0  0  0  0  0  0
   -0.4252   -0.7454    2.1415 H   0  0  0  0  0  0  0  0  0  0  0  0
    0.1108   -1.9203   -0.0628 H   0  0  0  0  0  0  0  0  0  0  0  0
  1  2  1  0
  2  3  2  0
  2  4  1  0
  4  5  1  0
  5  6  2  0
  5  7  1  0
  7  8  1  0
  8  9  1  0
  9 10  1  0
 10 11  1  0
 11 12  1  0
 12  7  1  0
  1 13  1  0
  1 14  1  0
  4 15  1  0
  4 16  1  0
  8 17  1  0
  8 18  1  0
  9 19  1  0
  9 20  1  0
 11 21  1  0
 11 22  1  0
 12 23  1  0
M  END
$$$$

     RDKit          3D

 23 23  0  0  0  0  0  0  0  0999 V2000
    4.2187    0.5531   -0.3080 N   0  0  0  0  0  0  0  0  0  0  0  0
    3.0225   -0.1455   -0.6518 C   0  0  0  0  0  0  0  0  0  0  0  0
    3.0339   -1.0404   -1.5357 O   0  0  0  0  0  0  0  0  0  0  0  0
    1.7249    0.1449    0.0068 C   0  0  0  0  0  0  0  0  0  0  0  0
    0.6470   -0.6930   -0.5079 C   0  0  0  0  0  0  0  0  0  0  0  0
    0.9303   -1.5248   -1.4076 O   0  0  0  0  0  0  0  0  0  0  0  0
   -0.6915   -0.6338   -0.0653 N   0  0  0  0  0  0  0  0  0  0  0  0
   -1.1318    0.2972    0.9772 C   0  0  0  0  0  0  0  0  0  0  0  0
   -2.1102    1.2435    0.2764 C   0  0  0  0  0  0  0  0  0  0  0  0
   -2.8747    0.5525   -0.6334 O   0  0  0  0  0  0  0  0  0  0  0  0
   -2.9828   -0.8027   -0.3693 C   0  0  0  0  0  0  0  0  0  0  0  0
   -1.6837   -1.4549   -0.5881 N   0  0  0  0  0  0  0  0  0  0  0  0
    4.1663    1.4487    0.2259 H   0  0  0  0  0  0  0  0  0  0  0  0
    5.1423    0.1971   -0.5733 H   0  0  0  0  0  0  0  0  0  0  0  0
    1.5431    1.2310   -0.0922 H   0  0  0  0  0  0  0  0  0  0  0  0
    1.8364   -0.0451    1.1102 H   0  0  0  0  0  0  0  0  0  0  0  0
   -1.6142   -0.2292    1.8217 H   0  0  0  0  0  0  0  0  0  0  0  0
   -0.3197    0.9151    1.3616 H   0  0  0  0  0  0  0  0  0  0  0  0
   -1.4483    1.9573   -0.2965 H   0  0  0  0  0  0  0  0  0  0  0  0
   -2.6867    1.8366    1.0041 H   0  0  0  0  0  0  0  0  0  0  0  0
   -3.7231   -1.2064   -1.1127 H   0  0  0  0  0  0  0  0  0  0  0  0
   -3.3875   -1.0221    0.6265 H   0  0  0  0  0  0  0  0  0  0  0  0
   -1.6112   -1.5790   -1.6286 H   0  0  0  0  0  0  0  0  0  0  0  0
  1  2  1  0
  2  3  2  0
  2  4  1  0
  4  5  1  0
  5  6  2  0
  5  7  1  0
  7  8  1  0
  8  9  1  0
  9 10  1  0
 10 11  1  0
 11 12  1  0
 12  7  1  0
  1 13  1  0
  1 14  1  0
  4 15  1  0
  4 16  1  0
  8 17  1  0
  8 18  1  0
  9 19  1  0
  9 20  1  0
 11 21  1  0
 11 22  1  0
 12 23  1  0
M  END
$$$$

     RDKit          3D

 23 23  0  0  0  0  0  0  0  0999 V2000
    2.9604    1.4395    0.1690 N   0  0  0  0  0  0  0  0  0  0  0  0
    2.3776    0.1491    0.3299 C   0  0  0  0  0  0  0  0  0  0  0  0
    2.1771   -0.2622    1.4908 O   0  0  0  0  0  0  0  0  0  0  0  0
    2.0188   -0.6824   -0.8343 C   0  0  0  0  0  0  0  0  0  0  0  0
    0.6346   -1.1347   -0.8603 C   0  0  0  0  0  0  0  0  0  0  0  0
    0.4408   -2.2682   -1.4702 O   0  0  0  0  0  0  0  0  0  0  0  0
   -0.5108   -0.5505   -0.3398 N   0  0  0  0  0  0  0  0  0  0  0  0
   -0.4742    0.7059    0.3721 C   0  0  0  0  0  0  0  0  0  0  0  0
   -1.9065    1.2746    0.2253 C   0  0  0  0  0  0  0  0  0  0  0  0
   -2.7437    0.4297    0.8961 O   0  0  0  0  0  0  0  0  0  0  0  0
   -2.6797   -0.8892    0.5314 C   0  0  0  0  0  0  0  0  0  0  0  0
   -1.7607   -1.1878   -0.5157 N   0  0  0  0  0  0  0  0  0  0  0  0
    3.3840    1.9528    0.9610 H   0  0  0  0  0  0  0  0  0  0  0  0
    2.9675    1.8886   -0.7643 H   0  0  0  0  0  0  0  0  0  0  0  0
    2.2810   -0.0687   -1.7535 H   0  0  0  0  0  0  0  0  0  0  0  0
    2.7342   -1.5558   -0.9195 H   0  0  0  0  0  0  0  0  0  0  0  0
    0.1891    1.4619   -0.0441 H   0  0  0  0  0  0  0  0  0  0  0  0
   -0.3472    0.4867    1.4536 H   0  0  0  0  0  0  0  0  0  0  0  0
   -1.8595    2.2155    0.8452 H   0  0  0  0  0  0  0  0  0  0  0  0
   -2.1361    1.5096   -0.8049 H   0  0  0  0  0  0  0  0  0  0  0  0
   -3.6993   -1.2221    0.2448 H   0  0  0  0  0  0  0  0  0  0  0  0
   -2.3888   -1.4766    1.4254 H   0  0  0  0  0  0  0  0  0  0  0  0
   -1.6586   -2.2155   -0.6382 H   0  0  0  0  0  0  0  0  0  0  0  0
  1  2  1  0
  2  3  2  0
  2  4  1  0
  4  5  1  0
  5  6  2  0
  5  7  1  0
  7  8  1  0
  8  9  1  0
  9 10  1  0
 10 11  1  0
 11 12  1  0
 12  7  1  0
  1 13  1  0
  1 14  1  0
  4 15  1  0
  4 16  1  0
  8 17  1  0
  8 18  1  0
  9 19  1  0
  9 20  1  0
 11 21  1  0
 11 22  1  0
 12 23  1  0
M  END
$$$$

     RDKit          3D

 23 23  0  0  0  0  0  0  0  0999 V2000
    3.7470    0.1636   -0.1722 N   0  0  0  0  0  0  0  0  0  0  0  0
    3.0259   -1.0441   -0.2436 C   0  0  0  0  0  0  0  0  0  0  0  0
    3.6951   -2.1122   -0.2937 O   0  0  0  0  0  0  0  0  0  0  0  0
    1.5533   -1.1273   -0.2629 C   0  0  0  0  0  0  0  0  0  0  0  0
    0.9377    0.2025   -0.1987 C   0  0  0  0  0  0  0  0  0  0  0  0
    1.6890    1.2143   -0.1376 O   0  0  0  0  0  0  0  0  0  0  0  0
   -0.4639    0.3991   -0.2023 N   0  0  0  0  0  0  0  0  0  0  0  0
   -1.3766   -0.7258   -0.2710 C   0  0  0  0  0  0  0  0  0  0  0  0
   -2.6394   -0.4318    0.5088 C   0  0  0  0  0  0  0  0  0  0  0  0
   -3.0998    0.8484    0.3430 O   0  0  0  0  0  0  0  0  0  0  0  0
   -2.3896    1.5648   -0.6177 C   0  0  0  0  0  0  0  0  0  0  0  0
   -1.0233    1.6797   -0.1402 N   0  0  0  0  0  0  0  0  0  0  0  0
    3.8457    0.6404    0.7346 H   0  0  0  0  0  0  0  0  0  0  0  0
    4.1717    0.5664   -1.0182 H   0  0  0  0  0  0  0  0  0  0  0  0
    1.2406   -1.6257   -1.1993 H   0  0  0  0  0  0  0  0  0  0  0  0
    1.2228   -1.7165    0.6252 H   0  0  0  0  0  0  0  0  0  0  0  0
   -0.9349   -1.6435    0.1829 H   0  0  0  0  0  0  0  0  0  0  0  0
   -1.6474   -0.9667   -1.3236 H   0  0  0  0  0  0  0  0  0  0  0  0
   -3.3952   -1.1759    0.1833 H   0  0  0  0  0  0  0  0  0  0  0  0
   -2.4415   -0.6031    1.5959 H   0  0  0  0  0  0  0  0  0  0  0  0
   -2.3798    0.9686   -1.5542 H   0  0  0  0  0  0  0  0  0  0  0  0
   -2.8731    2.5492   -0.7556 H   0  0  0  0  0  0  0  0  0  0  0  0
   -0.4643    2.3756   -0.6917 H   0  0  0  0  0  0  0  0  0  0  0  0
  1  2  1  0
  2  3  2  0
  2  4  1  0
  4  5  1  0
  5  6  2  0
  5  7  1  0
  7  8  1  0
  8  9  1  0
  9 10  1  0
 10 11  1  0
 11 12  1  0
 12  7  1  0
  1 13  1  0
  1 14  1  0
  4 15  1  0
  4 16  1  0
  8 17  1  0
  8 18  1  0
  9 19  1  0
  9 20  1  0
 11 21  1  0
 11 22  1  0
 12 23  1  0
M  END
$$$$

     RDKit          3D

 23 23  0  0  0  0  0  0  0  0999 V2000
    3.0615    0.5148    0.3413 N   0  0  0  0  0  0  0  0  0  0  0  0
    2.8947   -0.8550    0.0299 C   0  0  0  0  0  0  0  0  0  0  0  0
    3.7297   -1.7393    0.3507 O   0  0  0  0  0  0  0  0  0  0  0  0
    1.6848   -1.3379   -0.7168 C   0  0  0  0  0  0  0  0  0  0  0  0
    0.7763   -0.2145   -1.0451 C   0  0  0  0  0  0  0  0  0  0  0  0
    1.0735    0.5583   -1.9856 O   0  0  0  0  0  0  0  0  0  0  0  0
   -0.4235    0.0348   -0.3450 N   0  0  0  0  0  0  0  0  0  0  0  0
   -1.2573    1.1430   -0.7191 C   0  0  0  0  0  0  0  0  0  0  0  0
   -2.6638    1.0103   -0.1803 C   0  0  0  0  0  0  0  0  0  0  0  0
   -2.9189   -0.3191    0.2246 O   0  0  0  0  0  0  0  0  0  0  0  0
   -2.0382   -0.5661    1.2763 C   0  0  0  0  0  0  0  0  0  0  0  0
   -0.7456   -0.8410    0.7086 N   0  0  0  0  0  0  0  0  0  0  0  0
    2.2277    1.1127    0.4915 H   0  0  0  0  0  0  0  0  0  0  0  0
    3.9993    0.9492    0.4252 H   0  0  0  0  0  0  0  0  0  0  0  0
    2.0627   -1.8190   -1.6376 H   0  0  0  0  0  0  0  0  0  0  0  0
    1.1614   -2.1380   -0.1417 H   0  0  0  0  0  0  0  0  0  0  0  0
   -1.2671    1.3094   -1.8266 H   0  0  0  0  0  0  0  0  0  0  0  0
   -0.7643    2.0716   -0.3085 H   0  0  0  0  0  0  0  0  0  0  0  0
   -3.4381    1.2924   -0.9143 H   0  0  0  0  0  0  0  0  0  0  0  0
   -2.7136    1.6173    0.7518 H   0  0  0  0  0  0  0  0  0  0  0  0
   -2.0382    0.3286    1.9497 H   0  0  0  0  0  0  0  0  0  0  0  0
   -2.3641   -1.4820    1.8070 H   0  0  0  0  0  0  0  0  0  0  0  0
   -0.0390   -0.6303    1.4642 H   0  0  0  0  0  0  0  0  0  0  0  0
  1  2  1  0
  2  3  2  0
  2  4  1  0
  4  5  1  0
  5  6  2  0
  5  7  1  0
  7  8  1  0
  8  9  1  0
  9 10  1  0
 10 11  1  0
 11 12  1  0
 12  7  1  0
  1 13  1  0
  1 14  1  0
  4 15  1  0
  4 16  1  0
  8 17  1  0
  8 18  1  0
  9 19  1  0
  9 20  1  0
 11 21  1  0
 11 22  1  0
 12 23  1  0
M  END
$$$$

     RDKit          3D

 23 23  0  0  0  0  0  0  0  0999 V2000
    4.2680    0.2407    0.3730 N   0  0  0  0  0  0  0  0  0  0  0  0
    3.1627    0.0268   -0.5035 C   0  0  0  0  0  0  0  0  0  0  0  0
    3.3059    0.3557   -1.7054 O   0  0  0  0  0  0  0  0  0  0  0  0
    1.8660   -0.5513   -0.0901 C   0  0  0  0  0  0  0  0  0  0  0  0
    0.7611    0.3988   -0.4053 C   0  0  0  0  0  0  0  0  0  0  0  0
    1.0485    1.5148   -0.9135 O   0  0  0  0  0  0  0  0  0  0  0  0
   -0.5776    0.0670   -0.1437 N   0  0  0  0  0  0  0  0  0  0  0  0
   -1.6395    1.0027   -0.4437 C   0  0  0  0  0  0  0  0  0  0  0  0
   -2.9089    0.7504    0.2844 C   0  0  0  0  0  0  0  0  0  0  0  0
   -3.1934   -0.5553    0.5826 O   0  0  0  0  0  0  0  0  0  0  0  0
   -2.3224   -1.4009   -0.0721 C   0  0  0  0  0  0  0  0  0  0  0  0
   -0.9662   -1.1618    0.4068 N   0  0  0  0  0  0  0  0  0  0  0  0
    5.2229   -0.0183    0.0667 H   0  0  0  0  0  0  0  0  0  0  0  0
    4.1382    0.6615    1.3322 H   0  0  0  0  0  0  0  0  0  0  0  0
    1.8657   -0.8343    0.9879 H   0  0  0  0  0  0  0  0  0  0  0  0
    1.6986   -1.4635   -0.7318 H   0  0  0  0  0  0  0  0  0  0  0  0
   -1.7315    1.1015   -1.5364 H   0  0  0  0  0  0  0  0  0  0  0  0
   -1.2368    1.9983   -0.1012 H   0  0  0  0  0  0  0  0  0  0  0  0
   -3.7522    1.1452   -0.3515 H   0  0  0  0  0  0  0  0  0  0  0  0
   -2.9471    1.3680    1.2093 H   0  0  0  0  0  0  0  0  0  0  0  0
   -2.3686   -1.1526   -1.1696 H   0  0  0  0  0  0  0  0  0  0  0  0
   -2.6484   -2.4312    0.0375 H   0  0  0  0  0  0  0  0  0  0  0  0
   -1.0450   -1.0622    1.4471 H   0  0  0  0  0  0  0  0  0  0  0  0
  1  2  1  0
  2  3  2  0
  2  4  1  0
  4  5  1  0
  5  6  2  0
  5  7  1  0
  7  8  1  0
  8  9  1  0
  9 10  1  0
 10 11  1  0
 11 12  1  0
 12  7  1  0
  1 13  1  0
  1 14  1  0
  4 15  1  0
  4 16  1  0
  8 17  1  0
  8 18  1  0
  9 19  1  0
  9 20  1  0
 11 21  1  0
 11 22  1  0
 12 23  1  0
M  END
$$$$

     RDKit          3D

 23 23  0  0  0  0  0  0  0  0999 V2000
    3.6916    0.0484   -0.6113 N   0  0  0  0  0  0  0  0  0  0  0  0
    3.1144    0.2269    0.6592 C   0  0  0  0  0  0  0  0  0  0  0  0
    3.8574    0.4842    1.6422 O   0  0  0  0  0  0  0  0  0  0  0  0
    1.6557    0.1301    0.9252 C   0  0  0  0  0  0  0  0  0  0  0  0
    0.9042   -0.1762   -0.3153 C   0  0  0  0  0  0  0  0  0  0  0  0
    1.5374   -0.3131   -1.3923 O   0  0  0  0  0  0  0  0  0  0  0  0
   -0.4954   -0.3120   -0.2904 N   0  0  0  0  0  0  0  0  0  0  0  0
   -1.2189   -0.1578    0.9276 C   0  0  0  0  0  0  0  0  0  0  0  0
   -2.6724    0.0784    0.7797 C   0  0  0  0  0  0  0  0  0  0  0  0
   -3.1659    0.2412   -0.4602 O   0  0  0  0  0  0  0  0  0  0  0  0
   -2.3109    0.3344   -1.5030 C   0  0  0  0  0  0  0  0  0  0  0  0
   -1.1986   -0.5982   -1.4493 N   0  0  0  0  0  0  0  0  0  0  0  0
    4.0076    0.8900   -1.1326 H   0  0  0  0  0  0  0  0  0  0  0  0
    3.8307   -0.8691   -1.0799 H   0  0  0  0  0  0  0  0  0  0  0  0
    1.5129   -0.6963    1.6637 H   0  0  0  0  0  0  0  0  0  0  0  0
    1.2809    1.0451    1.4324 H   0  0  0  0  0  0  0  0  0  0  0  0
   -0.7405    0.7018    1.4838 H   0  0  0  0  0  0  0  0  0  0  0  0
   -1.0009   -1.0738    1.5530 H   0  0  0  0  0  0  0  0  0  0  0  0
   -2.9768    0.9665    1.4051 H   0  0  0  0  0  0  0  0  0  0  0  0
   -3.2170   -0.7834    1.2684 H   0  0  0  0  0  0  0  0  0  0  0  0
   -1.8875    1.3305   -1.6962 H   0  0  0  0  0  0  0  0  0  0  0  0
   -2.8771    0.0639   -2.4433 H   0  0  0  0  0  0  0  0  0  0  0  0
   -1.6307   -1.5615   -1.3665 H   0  0  0  0  0  0  0  0  0  0  0  0
  1  2  1  0
  2  3  2  0
  2  4  1  0
  4  5  1  0
  5  6  2  0
  5  7  1  0
  7  8  1  0
  8  9  1  0
  9 10  1  0
 10 11  1  0
 11 12  1  0
 12  7  1  0
  1 13  1  0
  1 14  1  0
  4 15  1  0
  4 16  1  0
  8 17  1  0
  8 18  1  0
  9 19  1  0
  9 20  1  0
 11 21  1  0
 11 22  1  0
 12 23  1  0
M  END
$$$$
