
     RDKit          3D

 20 20  0  0  0  0  0  0  0  0999 V2000
   -3.6074    0.2544    0.1100 C   0  0  0  0  0  0  0  0  0  0  0  0
   -2.2648    0.8220   -0.2834 C   0  0  0  0  0  0  0  0  0  0  0  0
   -1.2269   -0.0758    0.2067 N   0  0  0  0  0  0  0  0  0  0  0  0
    0.1547    0.1783   -0.0021 C   0  0  0  0  0  0  0  0  0  0  0  0
    0.5065    1.2039   -0.6263 O   0  0  0  0  0  0  0  0  0  0  0  0
    1.1945   -0.7723    0.5193 C   0  0  0  0  0  0  0  0  0  0  0  0
    2.5468   -0.3291    0.1994 C   0  0  0  0  0  0  0  0  0  0  0  0
    3.3193    0.4601    0.9493 N   0  0  0  0  0  0  0  0  0  0  0  0
    4.4643    0.6460    0.3493 N   0  0  0  0  0  0  0  0  0  0  0  0
    4.4125   -0.0235   -0.7737 N   0  0  0  0  0  0  0  0  0  0  0  0
    3.2495   -0.6325   -0.8951 N   0  0  0  0  0  0  0  0  0  0  0  0
   -3.5453   -0.8291    0.3235 H   0  0  0  0  0  0  0  0  0  0  0  0
   -4.3124    0.3465   -0.7598 H   0  0  0  0  0  0  0  0  0  0  0  0
   -4.0332    0.7434    1.0068 H   0  0  0  0  0  0  0  0  0  0  0  0
   -2.1893    1.8309    0.1553 H   0  0  0  0  0  0  0  0  0  0  0  0
   -2.2066    0.9243   -1.3971 H   0  0  0  0  0  0  0  0  0  0  0  0
   -1.4577   -0.9562    0.7395 H   0  0  0  0  0  0  0  0  0  0  0  0
    0.9514   -1.7959    0.1835 H   0  0  0  0  0  0  0  0  0  0  0  0
    1.0709   -0.7700    1.6271 H   0  0  0  0  0  0  0  0  0  0  0  0
    2.9735   -1.2253   -1.7037 H   0  0  0  0  0  0  0  0  0  0  0  0
  1  2  1  0
  2  3  1  0
  3  4  1  0
  4  5  2  0
  4  6  1  0
  6  7  1  0
  7  8  2  0
  8  9  1  0
  9 10  2  0
 10 11  1  0
 11  7  1  0
  1 12  1  0
  1 13  1  0
  1 14  1  0
  2 15  1  0
  2 16  1  0
  3 17  1  0
  6 18  1  0
  6 19  1  0
 11 20  1  0
M  END
$$$$

     RDKit          3D

 20 20  0  0  0  0  0  0  0  0999 V2000
    3.6100   -0.0280   -0.2092 C   0  0  0  0  0  0  0  0  0  0  0  0
    2.2854    0.4530    0.3574 C   0  0  0  0  0  0  0  0  0  0  0  0
    1.2250   -0.0863   -0.4611 N   0  0  0  0  0  0  0  0  0  0  0  0
   -0.1421    0.1870   -0.1833 C   0  0  0  0  0  0  0  0  0  0  0  0
   -0.3961    0.9175    0.8036 O   0  0  0  0  0  0  0  0  0  0  0  0
   -1.2019   -0.3953   -1.0610 C   0  0  0  0  0  0  0  0  0  0  0  0
   -2.5374    0.0264   -0.5768 C   0  0  0  0  0  0  0  0  0  0  0  0
   -3.2600    1.1143   -0.9135 N   0  0  0  0  0  0  0  0  0  0  0  0
   -4.3996    1.1025   -0.2416 N   0  0  0  0  0  0  0  0  0  0  0  0
   -4.4043    0.0269    0.5101 N   0  0  0  0  0  0  0  0  0  0  0  0
   -3.2946   -0.6289    0.3204 N   0  0  0  0  0  0  0  0  0  0  0  0
    4.2126   -0.5843    0.5145 H   0  0  0  0  0  0  0  0  0  0  0  0
    3.4476   -0.7024   -1.0879 H   0  0  0  0  0  0  0  0  0  0  0  0
    4.2121    0.8711   -0.4972 H   0  0  0  0  0  0  0  0  0  0  0  0
    2.2639    1.5512    0.4364 H   0  0  0  0  0  0  0  0  0  0  0  0
    2.2320    0.0706    1.4139 H   0  0  0  0  0  0  0  0  0  0  0  0
    1.4240   -0.7020   -1.2942 H   0  0  0  0  0  0  0  0  0  0  0  0
   -1.1831   -1.5174   -1.0091 H   0  0  0  0  0  0  0  0  0  0  0  0
   -1.0357   -0.1545   -2.1318 H   0  0  0  0  0  0  0  0  0  0  0  0
   -3.0578   -1.5214    0.8040 H   0  0  0  0  0  0  0  0  0  0  0  0
  1  2  1  0
  2  3  1  0
  3  4  1  0
  4  5  2  0
  4  6  1  0
  6  7  1  0
  7  8  2  0
  8  9  1  0
  9 10  2  0
 10 11  1  0
 11  7  1  0
  1 12  1  0
  1 13  1  0
  1 14  1  0
  2 15  1  0
  2 16  1  0
  3 17  1  0
  6 18  1  0
  6 19  1  0
 11 20  1  0
M  END
$$$$

     RDKit          3D

 20 20  0  0  0  0  0  0  0  0999 V2000
   -3.6297   -0.0444   -0.2492 C   0  0  0  0  0  0  0  0  0  0  0  0
   -2.2156   -0.2524   -0.6803 C   0  0  0  0  0  0  0  0  0  0  0  0
   -1.2495    0.0485    0.3307 N   0  0  0  0  0  0  0  0  0  0  0  0
    0.1251   -0.1094    0.0419 C   0  0  0  0  0  0  0  0  0  0  0  0
    0.5067   -0.5167   -1.1093 O   0  0  0  0  0  0  0  0  0  0  0  0
    1.1685    0.1829    1.0376 C   0  0  0  0  0  0  0  0  0  0  0  0
    2.5364   -0.0737    0.4569 C   0  0  0  0  0  0  0  0  0  0  0  0
    3.2166   -1.2276    0.4946 N   0  0  0  0  0  0  0  0  0  0  0  0
    4.3589   -1.0106   -0.1276 N   0  0  0  0  0  0  0  0  0  0  0  0
    4.4015    0.2410   -0.5463 N   0  0  0  0  0  0  0  0  0  0  0  0
    3.2794    0.8302   -0.1904 N   0  0  0  0  0  0  0  0  0  0  0  0
   -3.9324    1.0263   -0.3252 H   0  0  0  0  0  0  0  0  0  0  0  0
   -4.2867   -0.5787   -0.9933 H   0  0  0  0  0  0  0  0  0  0  0  0
   -3.8201   -0.4689    0.7517 H   0  0  0  0  0  0  0  0  0  0  0  0
   -1.9915    0.3953   -1.5587 H   0  0  0  0  0  0  0  0  0  0  0  0
   -2.0948   -1.3290   -0.9877 H   0  0  0  0  0  0  0  0  0  0  0  0
   -1.5338    0.3781    1.2655 H   0  0  0  0  0  0  0  0  0  0  0  0
    1.0686   -0.5304    1.8900 H   0  0  0  0  0  0  0  0  0  0  0  0
    1.1062    1.2053    1.4511 H   0  0  0  0  0  0  0  0  0  0  0  0
    2.9863    1.8343   -0.3678 H   0  0  0  0  0  0  0  0  0  0  0  0
  1  2  1  0
  2  3  1  0
  3  4  1  0
  4  5  2  0
  4  6  1  0
  6  7  1  0
  7  8  2  0
  8  9  1  0
  9 10  2  0
 10 11  1  0
 11  7  1  0
  1 12  1  0
  1 13  1  0
  1 14  1  0
  2 15  1  0
  2 16  1  0
  3 17  1  0
  6 18  1  0
  6 19  1  0
 11 20  1  0
M  END
$$$$

     RDKit          3D

 20 20  0  0  0  0  0  0  0  0999 V2000
   -3.5767   -0.5712   -0.1428 C   0  0  0  0  0  0  0  0  0  0  0  0
   -2.2064   -0.5187   -0.7558 C   0  0  0  0  0  0  0  0  0  0  0  0
   -1.2489   -0.0331    0.2029 N   0  0  0  0  0  0  0  0  0  0  0  0
    0.1154    0.0996   -0.1590 C   0  0  0  0  0  0  0  0  0  0  0  0
    0.4665   -0.2106   -1.3162 O   0  0  0  0  0  0  0  0  0  0  0  0
    1.0976    0.5889    0.7972 C   0  0  0  0  0  0  0  0  0  0  0  0
    2.4717    0.6583    0.2339 C   0  0  0  0  0  0  0  0  0  0  0  0
    3.0646    1.6891   -0.4043 N   0  0  0  0  0  0  0  0  0  0  0  0
    4.2833    1.2827   -0.7193 N   0  0  0  0  0  0  0  0  0  0  0  0
    4.4831    0.0474   -0.3097 N   0  0  0  0  0  0  0  0  0  0  0  0
    3.3676   -0.3425    0.2794 N   0  0  0  0  0  0  0  0  0  0  0  0
   -4.2105    0.2803   -0.4541 H   0  0  0  0  0  0  0  0  0  0  0  0
   -4.0365   -1.5442   -0.4215 H   0  0  0  0  0  0  0  0  0  0  0  0
   -3.5302   -0.5253    0.9819 H   0  0  0  0  0  0  0  0  0  0  0  0
   -1.8580   -1.5052   -1.1179 H   0  0  0  0  0  0  0  0  0  0  0  0
   -2.1612    0.1639   -1.6329 H   0  0  0  0  0  0  0  0  0  0  0  0
   -1.5834    0.2202    1.1749 H   0  0  0  0  0  0  0  0  0  0  0  0
    1.1153   -0.0795    1.6756 H   0  0  0  0  0  0  0  0  0  0  0  0
    0.7639    1.5899    1.1558 H   0  0  0  0  0  0  0  0  0  0  0  0
    3.1828   -1.2899    0.7253 H   0  0  0  0  0  0  0  0  0  0  0  0
  1  2  1  0
  2  3  1  0
  3  4  1  0
  4  5  2  0
  4  6  1  0
  6  7  1  0
  7  8  2  0
  8  9  1  0
  9 10  2  0
 10 11  1  0
 11  7  1  0
  1 12  1  0
  1 13  1  0
  1 14  1  0
  2 15  1  0
  2 16  1  0
  3 17  1  0
  6 18  1  0
  6 19  1  0
 11 20  1  0
M  END
$$$$

     RDKit          3D

 20 20  0  0  0  0  0  0  0  0999 V2000
   -3.6044    0.2418   -0.1849 C   0  0  0  0  0  0  0  0  0  0  0  0
   -2.3503    0.3152    0.6208 C   0  0  0  0  0  0  0  0  0  0  0  0
   -1.1726    0.0955   -0.2193 N   0  0  0  0  0  0  0  0  0  0  0  0
    0.1211    0.1234    0.3469 C   0  0  0  0  0  0  0  0  0  0  0  0
    0.2791    0.3364    1.5756 O   0  0  0  0  0  0  0  0  0  0  0  0
    1.3084   -0.1011   -0.5167 C   0  0  0  0  0  0  0  0  0  0  0  0
    2.5630   -0.0363    0.2414 C   0  0  0  0  0  0  0  0  0  0  0  0
    3.2922    1.0672    0.4518 N   0  0  0  0  0  0  0  0  0  0  0  0
    4.3398    0.6974    1.1764 N   0  0  0  0  0  0  0  0  0  0  0  0
    4.2947   -0.6013    1.4292 N   0  0  0  0  0  0  0  0  0  0  0  0
    3.2122   -1.0609    0.8623 N   0  0  0  0  0  0  0  0  0  0  0  0
   -3.9017    1.2345   -0.6197 H   0  0  0  0  0  0  0  0  0  0  0  0
   -3.4749   -0.4539   -1.0415 H   0  0  0  0  0  0  0  0  0  0  0  0
   -4.4368   -0.0559    0.4866 H   0  0  0  0  0  0  0  0  0  0  0  0
   -2.2412    1.2788    1.1330 H   0  0  0  0  0  0  0  0  0  0  0  0
   -2.4232   -0.4713    1.4215 H   0  0  0  0  0  0  0  0  0  0  0  0
   -1.2515   -0.0863   -1.2503 H   0  0  0  0  0  0  0  0  0  0  0  0
    1.3603    0.6287   -1.3564 H   0  0  0  0  0  0  0  0  0  0  0  0
    1.2629   -1.1137   -1.0110 H   0  0  0  0  0  0  0  0  0  0  0  0
    2.8229   -2.0382    0.8339 H   0  0  0  0  0  0  0  0  0  0  0  0
  1  2  1  0
  2  3  1  0
  3  4  1  0
  4  5  2  0
  4  6  1  0
  6  7  1  0
  7  8  2  0
  8  9  1  0
  9 10  2  0
 10 11  1  0
 11  7  1  0
  1 12  1  0
  1 13  1  0
  1 14  1  0
  2 15  1  0
  2 16  1  0
  3 17  1  0
  6 18  1  0
  6 19  1  0
 11 20  1  0
M  END
$$$$

     RDKit          3D

 20 20  0  0  0  0  0  0  0  0999 V2000
    3.3145    0.9671    0.3410 C   0  0  0  0  0  0  0  0  0  0  0  0
    2.1939    0.4612   -0.5251 C   0  0  0  0  0  0  0  0  0  0  0  0
    1.1449   -0.1278    0.2741 N   0  0  0  0  0  0  0  0  0  0  0  0
   -0.0348   -0.6568   -0.3140 C   0  0  0  0  0  0  0  0  0  0  0  0
   -0.2548   -0.6566   -1.5475 O   0  0  0  0  0  0  0  0  0  0  0  0
   -1.1033   -1.2627    0.5682 C   0  0  0  0  0  0  0  0  0  0  0  0
   -2.2648   -0.3389    0.4635 C   0  0  0  0  0  0  0  0  0  0  0  0
   -2.2693    0.8845    1.0943 N   0  0  0  0  0  0  0  0  0  0  0  0
   -3.4405    1.4426    0.7976 N   0  0  0  0  0  0  0  0  0  0  0  0
   -4.1359    0.6077    0.0186 N   0  0  0  0  0  0  0  0  0  0  0  0
   -3.4204   -0.5075   -0.2007 N   0  0  0  0  0  0  0  0  0  0  0  0
    4.0596    0.1673    0.5157 H   0  0  0  0  0  0  0  0  0  0  0  0
    2.8670    1.2323    1.3498 H   0  0  0  0  0  0  0  0  0  0  0  0
    3.7498    1.8623   -0.1435 H   0  0  0  0  0  0  0  0  0  0  0  0
    1.8123    1.3361   -1.1141 H   0  0  0  0  0  0  0  0  0  0  0  0
    2.5260   -0.2793   -1.2556 H   0  0  0  0  0  0  0  0  0  0  0  0
    1.1872   -0.2016    1.3227 H   0  0  0  0  0  0  0  0  0  0  0  0
   -0.8016   -1.3422    1.6125 H   0  0  0  0  0  0  0  0  0  0  0  0
   -1.4168   -2.2430    0.1079 H   0  0  0  0  0  0  0  0  0  0  0  0
   -3.7129   -1.3446   -0.7752 H   0  0  0  0  0  0  0  0  0  0  0  0
  1  2  1  0
  2  3  1  0
  3  4  1  0
  4  5  2  0
  4  6  1  0
  6  7  1  0
  7  8  2  0
  8  9  1  0
  9 10  2  0
 10 11  1  0
 11  7  1  0
  1 12  1  0
  1 13  1  0
  1 14  1  0
  2 15  1  0
  2 16  1  0
  3 17  1  0
  6 18  1  0
  6 19  1  0
 11 20  1  0
M  END
$$$$

     RDKit          3D

 20 20  0  0  0  0  0  0  0  0999 V2000
    3.5988    0.4184    0.0439 C   0  0  0  0  0  0  0  0  0  0  0  0
    2.2434    0.8815   -0.3774 C   0  0  0  0  0  0  0  0  0  0  0  0
    1.2221   -0.0871   -0.0426 N   0  0  0  0  0  0  0  0  0  0  0  0
   -0.1573    0.0781   -0.3197 C   0  0  0  0  0  0  0  0  0  0  0  0
   -0.5194    1.1330   -0.8931 O   0  0  0  0  0  0  0  0  0  0  0  0
   -1.1029   -0.9680    0.0642 C   0  0  0  0  0  0  0  0  0  0  0  0
   -2.4988   -0.6206   -0.3053 C   0  0  0  0  0  0  0  0  0  0  0  0
   -3.1889   -0.8560   -1.4073 N   0  0  0  0  0  0  0  0  0  0  0  0
   -4.4054   -0.3600   -1.2930 N   0  0  0  0  0  0  0  0  0  0  0  0
   -4.4762    0.1955   -0.0974 N   0  0  0  0  0  0  0  0  0  0  0  0
   -3.3200    0.0483    0.5260 N   0  0  0  0  0  0  0  0  0  0  0  0
    4.1890    1.2113    0.5670 H   0  0  0  0  0  0  0  0  0  0  0  0
    3.4736   -0.3976    0.8060 H   0  0  0  0  0  0  0  0  0  0  0  0
    4.2252    0.0485   -0.7763 H   0  0  0  0  0  0  0  0  0  0  0  0
    2.0107    1.8301    0.1880 H   0  0  0  0  0  0  0  0  0  0  0  0
    2.1834    1.1665   -1.4458 H   0  0  0  0  0  0  0  0  0  0  0  0
    1.5221   -0.9618    0.4329 H   0  0  0  0  0  0  0  0  0  0  0  0
   -1.0792   -1.2510    1.1226 H   0  0  0  0  0  0  0  0  0  0  0  0
   -0.8246   -1.9002   -0.5063 H   0  0  0  0  0  0  0  0  0  0  0  0
   -3.0957    0.3912    1.4855 H   0  0  0  0  0  0  0  0  0  0  0  0
  1  2  1  0
  2  3  1  0
  3  4  1  0
  4  5  2  0
  4  6  1  0
  6  7  1  0
  7  8  2  0
  8  9  1  0
  9 10  2  0
 10 11  1  0
 11  7  1  0
  1 12  1  0
  1 13  1  0
  1 14  1  0
  2 15  1  0
  2 16  1  0
  3 17  1  0
  6 18  1  0
  6 19  1  0
 11 20  1  0
M  END
$$$$

     RDKit          3D

 20 20  0  0  0  0  0  0  0  0999 V2000
    3.6338    0.2908    0.0463 C   0  0  0  0  0  0  0  0  0  0  0  0
    2.2263    0.8330    0.0522 C   0  0  0  0  0  0  0  0  0  0  0  0
    1.2405   -0.2341    0.0535 N   0  0  0  0  0  0  0  0  0  0  0  0
   -0.1486    0.0604    0.0588 C   0  0  0  0  0  0  0  0  0  0  0  0
   -0.4568    1.2854    0.0623 O   0  0  0  0  0  0  0  0  0  0  0  0
   -1.1710   -1.0209    0.0602 C   0  0  0  0  0  0  0  0  0  0  0  0
   -2.5202   -0.4275    0.0660 C   0  0  0  0  0  0  0  0  0  0  0  0
   -3.2882   -0.0894   -0.9786 N   0  0  0  0  0  0  0  0  0  0  0  0
   -4.4415    0.4178   -0.5839 N   0  0  0  0  0  0  0  0  0  0  0  0
   -4.3936    0.3965    0.7458 N   0  0  0  0  0  0  0  0  0  0  0  0
   -3.2588   -0.1028    1.1650 N   0  0  0  0  0  0  0  0  0  0  0  0
    3.6484   -0.7597   -0.3389 H   0  0  0  0  0  0  0  0  0  0  0  0
    4.0046    0.2874    1.0964 H   0  0  0  0  0  0  0  0  0  0  0  0
    4.2746    0.9610   -0.5426 H   0  0  0  0  0  0  0  0  0  0  0  0
    2.0895    1.3674   -0.9247 H   0  0  0  0  0  0  0  0  0  0  0  0
    2.1145    1.5256    0.8995 H   0  0  0  0  0  0  0  0  0  0  0  0
    1.5750   -1.2107    0.0504 H   0  0  0  0  0  0  0  0  0  0  0  0
   -1.0881   -1.6690    0.9518 H   0  0  0  0  0  0  0  0  0  0  0  0
   -1.1002   -1.6679   -0.8445 H   0  0  0  0  0  0  0  0  0  0  0  0
   -2.9403   -0.2431    2.1348 H   0  0  0  0  0  0  0  0  0  0  0  0
  1  2  1  0
  2  3  1  0
  3  4  1  0
  4  5  2  0
  4  6  1  0
  6  7  1  0
  7  8  2  0
  8  9  1  0
  9 10  2  0
 10 11  1  0
 11  7  1  0
  1 12  1  0
  1 13  1  0
  1 14  1  0
  2 15  1  0
  2 16  1  0
  3 17  1  0
  6 18  1  0
  6 19  1  0
 11 20  1  0
M  END
$$$$
