
     RDKit          3D

 28 29  0  0  0  0  0  0  0  0999 V2000
    3.3307    1.0511    0.4398 C   0  0  0  0  0  0  0  0  0  0  0  0
    2.1796    0.7940   -0.5325 C   0  0  0  0  0  0  0  0  0  0  0  0
    1.2976   -0.0794    0.1910 N   0  0  0  0  0  0  0  0  0  0  0  0
    1.6563   -1.4534   -0.0589 N   0  0  0  0  0  0  0  0  0  0  0  0
    0.5244   -2.1842    0.5147 C   0  0  0  0  0  0  0  0  0  0  0  0
   -0.5641   -1.1932    0.6317 C   0  0  2  0  0  0  0  0  0  0  0  0
   -1.8809   -1.5530    0.1048 C   0  0  0  0  0  0  0  0  0  0  0  0
   -2.3162   -2.6895   -0.1177 O   0  0  0  0  0  0  0  0  0  0  0  0
   -2.7159   -0.4005   -0.1685 N   0  0  0  0  0  0  0  0  0  0  0  0
   -2.1523    0.8704    0.2346 C   0  0  2  0  0  0  0  0  0  0  0  0
   -3.0264    1.9128   -0.2741 N   0  0  0  0  0  0  0  0  0  0  0  0
   -0.7911    1.0437   -0.1719 N   0  0  0  0  0  0  0  0  0  0  0  0
   -0.0352   -0.1379   -0.3770 C   0  0  1  0  0  0  0  0  0  0  0  0
    4.1122    1.6858    0.0360 H   0  0  0  0  0  0  0  0  0  0  0  0
    2.8279    1.5336    1.3410 H   0  0  0  0  0  0  0  0  0  0  0  0
    3.6610    0.0713    0.8237 H   0  0  0  0  0  0  0  0  0  0  0  0
    2.6741    0.2103   -1.3696 H   0  0  0  0  0  0  0  0  0  0  0  0
    1.7573    1.6926   -0.9396 H   0  0  0  0  0  0  0  0  0  0  0  0
    1.5523   -1.6118   -1.1073 H   0  0  0  0  0  0  0  0  0  0  0  0
    0.2474   -3.0828   -0.0741 H   0  0  0  0  0  0  0  0  0  0  0  0
    0.8623   -2.4476    1.5379 H   0  0  0  0  0  0  0  0  0  0  0  0
   -0.5960   -0.6955    1.6226 H   0  0  0  0  0  0  0  0  0  0  0  0
   -3.6468   -0.5135   -0.6216 H   0  0  0  0  0  0  0  0  0  0  0  0
   -2.1813    0.9774    1.3533 H   0  0  0  0  0  0  0  0  0  0  0  0
   -2.6594    2.3241   -1.1609 H   0  0  0  0  0  0  0  0  0  0  0  0
   -3.3042    2.6080    0.4264 H   0  0  0  0  0  0  0  0  0  0  0  0
   -0.7029    1.7671   -0.8968 H   0  0  0  0  0  0  0  0  0  0  0  0
   -0.1104   -0.4999   -1.3869 H   0  0  0  0  0  0  0  0  0  0  0  0
  1  2  1  0
  2  3  1  0
  3  4  1  0
  4  5  1  0
  5  6  1  0
  6  7  1  0
  7  8  2  0
  7  9  1  0
  9 10  1  0
 10 11  1  0
 10 12  1  0
 12 13  1  0
 13  3  1  0
 13  6  1  0
  1 14  1  0
  1 15  1  0
  1 16  1  0
  2 17  1  0
  2 18  1  0
  4 19  1  0
  5 20  1  0
  5 21  1  0
  6 22  1  1
  9 23  1  0
 10 24  1  1
 11 25  1  0
 11 26  1  0
 12 27  1  0
 13 28  1  6
M  END
$$$$

     RDKit          3D

 28 29  0  0  0  0  0  0  0  0999 V2000
    2.7539    1.4297   -0.4698 C   0  0  0  0  0  0  0  0  0  0  0  0
    2.5303    0.0296    0.0026 C   0  0  0  0  0  0  0  0  0  0  0  0
    1.3042   -0.1832    0.7291 N   0  0  0  0  0  0  0  0  0  0  0  0
    1.3899   -1.4458    1.3236 N   0  0  0  0  0  0  0  0  0  0  0  0
    0.3173   -2.2430    0.6954 C   0  0  0  0  0  0  0  0  0  0  0  0
   -0.7188   -1.1784    0.6159 C   0  0  2  0  0  0  0  0  0  0  0  0
   -1.8275   -1.4246   -0.2983 C   0  0  0  0  0  0  0  0  0  0  0  0
   -2.1788   -2.5581   -0.7282 O   0  0  0  0  0  0  0  0  0  0  0  0
   -2.5188   -0.2412   -0.6924 N   0  0  0  0  0  0  0  0  0  0  0  0
   -2.0167    1.0014   -0.1691 C   0  0  2  0  0  0  0  0  0  0  0  0
   -2.5580    2.0942   -0.9886 N   0  0  0  0  0  0  0  0  0  0  0  0
   -0.5690    1.1066   -0.1541 N   0  0  0  0  0  0  0  0  0  0  0  0
    0.1466   -0.0995   -0.0694 C   0  0  1  0  0  0  0  0  0  0  0  0
    1.8706    2.0777   -0.4348 H   0  0  0  0  0  0  0  0  0  0  0  0
    3.6131    1.8862    0.1183 H   0  0  0  0  0  0  0  0  0  0  0  0
    3.1734    1.3738   -1.5067 H   0  0  0  0  0  0  0  0  0  0  0  0
    3.4200   -0.2870    0.6032 H   0  0  0  0  0  0  0  0  0  0  0  0
    2.5408   -0.6876   -0.8699 H   0  0  0  0  0  0  0  0  0  0  0  0
    1.0337   -1.2903    2.3114 H   0  0  0  0  0  0  0  0  0  0  0  0
    0.6885   -2.5086   -0.3120 H   0  0  0  0  0  0  0  0  0  0  0  0
    0.0547   -3.1016    1.3167 H   0  0  0  0  0  0  0  0  0  0  0  0
   -1.0276   -0.8331    1.6233 H   0  0  0  0  0  0  0  0  0  0  0  0
   -3.3494   -0.2315   -1.3240 H   0  0  0  0  0  0  0  0  0  0  0  0
   -2.3611    1.1915    0.8718 H   0  0  0  0  0  0  0  0  0  0  0  0
   -3.6047    2.0590   -0.9392 H   0  0  0  0  0  0  0  0  0  0  0  0
   -2.1507    3.0055   -0.7613 H   0  0  0  0  0  0  0  0  0  0  0  0
   -0.3347    1.5730   -1.0870 H   0  0  0  0  0  0  0  0  0  0  0  0
    0.3792   -0.5147   -1.0777 H   0  0  0  0  0  0  0  0  0  0  0  0
  1  2  1  0
  2  3  1  0
  3  4  1  0
  4  5  1  0
  5  6  1  0
  6  7  1  0
  7  8  2  0
  7  9  1  0
  9 10  1  0
 10 11  1  0
 10 12  1  0
 12 13  1  0
 13  3  1  0
 13  6  1  0
  1 14  1  0
  1 15  1  0
  1 16  1  0
  2 17  1  0
  2 18  1  0
  4 19  1  0
  5 20  1  0
  5 21  1  0
  6 22  1  1
  9 23  1  0
 10 24  1  1
 11 25  1  0
 11 26  1  0
 12 27  1  0
 13 28  1  6
M  END
$$$$

     RDKit          3D

 28 29  0  0  0  0  0  0  0  0999 V2000
    3.5019    1.0090    0.0403 C   0  0  0  0  0  0  0  0  0  0  0  0
    2.0139    1.1540    0.1423 C   0  0  0  0  0  0  0  0  0  0  0  0
    1.2799    0.0101   -0.1566 N   0  0  0  0  0  0  0  0  0  0  0  0
    1.8104   -1.2170    0.1571 N   0  0  0  0  0  0  0  0  0  0  0  0
    0.7111   -2.1527   -0.1546 C   0  0  0  0  0  0  0  0  0  0  0  0
   -0.4403   -1.3670    0.3470 C   0  0  2  0  0  0  0  0  0  0  0  0
   -1.7506   -1.6389   -0.2763 C   0  0  0  0  0  0  0  0  0  0  0  0
   -2.0863   -2.6405   -0.9087 O   0  0  0  0  0  0  0  0  0  0  0  0
   -2.6856   -0.5704   -0.0822 N   0  0  0  0  0  0  0  0  0  0  0  0
   -2.2819    0.7189    0.4318 C   0  0  2  0  0  0  0  0  0  0  0  0
   -2.8949    1.7491   -0.4188 N   0  0  0  0  0  0  0  0  0  0  0  0
   -0.8724    0.9478    0.4997 N   0  0  0  0  0  0  0  0  0  0  0  0
   -0.0922    0.0157   -0.2170 C   0  0  1  0  0  0  0  0  0  0  0  0
    3.8207    0.8284   -1.0171 H   0  0  0  0  0  0  0  0  0  0  0  0
    3.9348    2.0225    0.2741 H   0  0  0  0  0  0  0  0  0  0  0  0
    3.9368    0.2853    0.7402 H   0  0  0  0  0  0  0  0  0  0  0  0
    1.6946    2.0041   -0.4819 H   0  0  0  0  0  0  0  0  0  0  0  0
    1.7955    1.4640    1.1983 H   0  0  0  0  0  0  0  0  0  0  0  0
    1.8818   -1.2416    1.2212 H   0  0  0  0  0  0  0  0  0  0  0  0
    0.6270   -2.2570   -1.2470 H   0  0  0  0  0  0  0  0  0  0  0  0
    0.8643   -3.1266    0.3589 H   0  0  0  0  0  0  0  0  0  0  0  0
   -0.5071   -1.3280    1.4558 H   0  0  0  0  0  0  0  0  0  0  0  0
   -3.7042   -0.6784   -0.3003 H   0  0  0  0  0  0  0  0  0  0  0  0
   -2.7489    0.8382    1.4364 H   0  0  0  0  0  0  0  0  0  0  0  0
   -3.7119    1.3624   -0.9270 H   0  0  0  0  0  0  0  0  0  0  0  0
   -3.1880    2.5730    0.1666 H   0  0  0  0  0  0  0  0  0  0  0  0
   -0.4922    1.2131    1.4097 H   0  0  0  0  0  0  0  0  0  0  0  0
   -0.4163    0.0228   -1.2884 H   0  0  0  0  0  0  0  0  0  0  0  0
  1  2  1  0
  2  3  1  0
  3  4  1  0
  4  5  1  0
  5  6  1  0
  6  7  1  0
  7  8  2  0
  7  9  1  0
  9 10  1  0
 10 11  1  0
 10 12  1  0
 12 13  1  0
 13  3  1  0
 13  6  1  0
  1 14  1  0
  1 15  1  0
  1 16  1  0
  2 17  1  0
  2 18  1  0
  4 19  1  0
  5 20  1  0
  5 21  1  0
  6 22  1  1
  9 23  1  0
 10 24  1  1
 11 25  1  0
 11 26  1  0
 12 27  1  0
 13 28  1  6
M  END
$$$$

     RDKit          3D

 28 29  0  0  0  0  0  0  0  0999 V2000
    2.5863    1.6151    0.1105 C   0  0  0  0  0  0  0  0  0  0  0  0
    2.1591    0.5002    1.0266 C   0  0  0  0  0  0  0  0  0  0  0  0
    1.3633   -0.4970    0.4424 N   0  0  0  0  0  0  0  0  0  0  0  0
    1.8606   -1.1503   -0.6649 N   0  0  0  0  0  0  0  0  0  0  0  0
    0.7509   -2.0242   -1.0899 C   0  0  0  0  0  0  0  0  0  0  0  0
   -0.4563   -1.5278   -0.3715 C   0  0  2  0  0  0  0  0  0  0  0  0
   -1.6290   -1.2207   -1.2156 C   0  0  0  0  0  0  0  0  0  0  0  0
   -1.9712   -1.8514   -2.2314 O   0  0  0  0  0  0  0  0  0  0  0  0
   -2.3827   -0.1010   -0.7743 N   0  0  0  0  0  0  0  0  0  0  0  0
   -2.2069    0.2484    0.6343 C   0  0  2  0  0  0  0  0  0  0  0  0
   -3.0296    1.3788    0.9809 N   0  0  0  0  0  0  0  0  0  0  0  0
   -0.8312    0.3797    1.0218 N   0  0  0  0  0  0  0  0  0  0  0  0
    0.0504   -0.1266    0.0421 C   0  0  1  0  0  0  0  0  0  0  0  0
    1.8203    2.4421    0.0916 H   0  0  0  0  0  0  0  0  0  0  0  0
    2.8652    1.2925   -0.8964 H   0  0  0  0  0  0  0  0  0  0  0  0
    3.4929    2.0795    0.5608 H   0  0  0  0  0  0  0  0  0  0  0  0
    3.0608    0.0275    1.4763 H   0  0  0  0  0  0  0  0  0  0  0  0
    1.6031    0.9482    1.8715 H   0  0  0  0  0  0  0  0  0  0  0  0
    2.0276   -0.5147   -1.4760 H   0  0  0  0  0  0  0  0  0  0  0  0
    1.0014   -3.0641   -0.7464 H   0  0  0  0  0  0  0  0  0  0  0  0
    0.6497   -2.0529   -2.1839 H   0  0  0  0  0  0  0  0  0  0  0  0
   -0.7168   -2.1187    0.5283 H   0  0  0  0  0  0  0  0  0  0  0  0
   -3.0179    0.4399   -1.3995 H   0  0  0  0  0  0  0  0  0  0  0  0
   -2.6233   -0.6275    1.2084 H   0  0  0  0  0  0  0  0  0  0  0  0
   -3.2108    1.3732    2.0123 H   0  0  0  0  0  0  0  0  0  0  0  0
   -2.6518    2.2736    0.6457 H   0  0  0  0  0  0  0  0  0  0  0  0
   -0.5899    1.3856    1.2778 H   0  0  0  0  0  0  0  0  0  0  0  0
    0.0258    0.4925   -0.8816 H   0  0  0  0  0  0  0  0  0  0  0  0
  1  2  1  0
  2  3  1  0
  3  4  1  0
  4  5  1  0
  5  6  1  0
  6  7  1  0
  7  8  2  0
  7  9  1  0
  9 10  1  0
 10 11  1  0
 10 12  1  0
 12 13  1  0
 13  3  1  0
 13  6  1  0
  1 14  1  0
  1 15  1  0
  1 16  1  0
  2 17  1  0
  2 18  1  0
  4 19  1  0
  5 20  1  0
  5 21  1  0
  6 22  1  1
  9 23  1  0
 10 24  1  1
 11 25  1  0
 11 26  1  0
 12 27  1  0
 13 28  1  6
M  END
$$$$

     RDKit          3D

 28 29  0  0  0  0  0  0  0  0999 V2000
    3.2769    1.5599    0.8890 C   0  0  0  0  0  0  0  0  0  0  0  0
    2.0922    1.1864   -0.0181 C   0  0  0  0  0  0  0  0  0  0  0  0
    1.2112    0.2543    0.6949 N   0  0  0  0  0  0  0  0  0  0  0  0
    1.8162   -1.0061    0.6475 N   0  0  0  0  0  0  0  0  0  0  0  0
    1.0054   -1.8497   -0.2310 C   0  0  0  0  0  0  0  0  0  0  0  0
   -0.3408   -1.3408    0.1468 C   0  0  2  0  0  0  0  0  0  0  0  0
   -1.4513   -1.5888   -0.7582 C   0  0  0  0  0  0  0  0  0  0  0  0
   -1.5424   -2.4220   -1.6763 O   0  0  0  0  0  0  0  0  0  0  0  0
   -2.5813   -0.7145   -0.5129 N   0  0  0  0  0  0  0  0  0  0  0  0
   -2.3766    0.1968    0.6050 C   0  0  2  0  0  0  0  0  0  0  0  0
   -3.4756    1.0934    0.8320 N   0  0  0  0  0  0  0  0  0  0  0  0
   -1.0955    0.9003    0.5223 N   0  0  0  0  0  0  0  0  0  0  0  0
   -0.0345    0.1580   -0.0260 C   0  0  1  0  0  0  0  0  0  0  0  0
    2.8194    2.1054    1.7722 H   0  0  0  0  0  0  0  0  0  0  0  0
    3.8395    0.6871    1.1853 H   0  0  0  0  0  0  0  0  0  0  0  0
    3.9289    2.2790    0.3264 H   0  0  0  0  0  0  0  0  0  0  0  0
    1.5458    2.1196   -0.2463 H   0  0  0  0  0  0  0  0  0  0  0  0
    2.4789    0.6886   -0.9454 H   0  0  0  0  0  0  0  0  0  0  0  0
    1.6948   -1.4122    1.6169 H   0  0  0  0  0  0  0  0  0  0  0  0
    1.1767   -2.9155   -0.0063 H   0  0  0  0  0  0  0  0  0  0  0  0
    1.2728   -1.5753   -1.2600 H   0  0  0  0  0  0  0  0  0  0  0  0
   -0.5395   -1.5154    1.2270 H   0  0  0  0  0  0  0  0  0  0  0  0
   -3.4384   -0.7469   -1.0970 H   0  0  0  0  0  0  0  0  0  0  0  0
   -2.2686   -0.4469    1.5152 H   0  0  0  0  0  0  0  0  0  0  0  0
   -4.3077    0.5254    1.0872 H   0  0  0  0  0  0  0  0  0  0  0  0
   -3.6041    1.6836   -0.0081 H   0  0  0  0  0  0  0  0  0  0  0  0
   -1.2768    1.7433   -0.0666 H   0  0  0  0  0  0  0  0  0  0  0  0
    0.1746    0.3531   -1.1182 H   0  0  0  0  0  0  0  0  0  0  0  0
  1  2  1  0
  2  3  1  0
  3  4  1  0
  4  5  1  0
  5  6  1  0
  6  7  1  0
  7  8  2  0
  7  9  1  0
  9 10  1  0
 10 11  1  0
 10 12  1  0
 12 13  1  0
 13  3  1  0
 13  6  1  0
  1 14  1  0
  1 15  1  0
  1 16  1  0
  2 17  1  0
  2 18  1  0
  4 19  1  0
  5 20  1  0
  5 21  1  0
  6 22  1  1
  9 23  1  0
 10 24  1  1
 11 25  1  0
 11 26  1  0
 12 27  1  0
 13 28  1  6
M  END
$$$$

     RDKit          3D

 28 29  0  0  0  0  0  0  0  0999 V2000
   -3.4872    0.8803   -0.3098 C   0  0  0  0  0  0  0  0  0  0  0  0
   -2.3236    0.4467    0.5651 C   0  0  0  0  0  0  0  0  0  0  0  0
   -1.2195    0.1431   -0.3379 N   0  0  0  0  0  0  0  0  0  0  0  0
   -1.5272   -1.1158   -0.8919 N   0  0  0  0  0  0  0  0  0  0  0  0
   -0.4971   -2.0510   -0.4842 C   0  0  0  0  0  0  0  0  0  0  0  0
    0.6661   -1.1195   -0.4540 C   0  0  2  0  0  0  0  0  0  0  0  0
    1.8384   -1.5097    0.3203 C   0  0  0  0  0  0  0  0  0  0  0  0
    2.1445   -2.6590    0.6900 O   0  0  0  0  0  0  0  0  0  0  0  0
    2.6762   -0.3849    0.6545 N   0  0  0  0  0  0  0  0  0  0  0  0
    2.2834    0.8526   -0.0013 C   0  0  2  0  0  0  0  0  0  0  0  0
    3.1220    1.9645    0.2947 N   0  0  0  0  0  0  0  0  0  0  0  0
    0.8768    1.1536    0.2473 N   0  0  0  0  0  0  0  0  0  0  0  0
    0.0328    0.0177    0.3492 C   0  0  1  0  0  0  0  0  0  0  0  0
   -4.3997    0.9705    0.3076 H   0  0  0  0  0  0  0  0  0  0  0  0
   -3.1830    1.8523   -0.7512 H   0  0  0  0  0  0  0  0  0  0  0  0
   -3.5750    0.1416   -1.1086 H   0  0  0  0  0  0  0  0  0  0  0  0
   -2.6719   -0.5123    1.0391 H   0  0  0  0  0  0  0  0  0  0  0  0
   -2.0427    1.1818    1.3224 H   0  0  0  0  0  0  0  0  0  0  0  0
   -1.4016   -1.0128   -1.9219 H   0  0  0  0  0  0  0  0  0  0  0  0
   -0.7377   -2.3997    0.5246 H   0  0  0  0  0  0  0  0  0  0  0  0
   -0.3920   -2.8679   -1.2270 H   0  0  0  0  0  0  0  0  0  0  0  0
    0.8688   -0.7077   -1.4592 H   0  0  0  0  0  0  0  0  0  0  0  0
    3.4830   -0.4796    1.2907 H   0  0  0  0  0  0  0  0  0  0  0  0
    2.3297    0.6941   -1.1237 H   0  0  0  0  0  0  0  0  0  0  0  0
    3.7973    2.1968   -0.4907 H   0  0  0  0  0  0  0  0  0  0  0  0
    2.5479    2.8075    0.4176 H   0  0  0  0  0  0  0  0  0  0  0  0
    0.8595    1.7693    1.1008 H   0  0  0  0  0  0  0  0  0  0  0  0
   -0.0681   -0.2524    1.4194 H   0  0  0  0  0  0  0  0  0  0  0  0
  1  2  1  0
  2  3  1  0
  3  4  1  0
  4  5  1  0
  5  6  1  0
  6  7  1  0
  7  8  2  0
  7  9  1  0
  9 10  1  0
 10 11  1  0
 10 12  1  0
 12 13  1  0
 13  3  1  0
 13  6  1  0
  1 14  1  0
  1 15  1  0
  1 16  1  0
  2 17  1  0
  2 18  1  0
  4 19  1  0
  5 20  1  0
  5 21  1  0
  6 22  1  6
  9 23  1  0
 10 24  1  6
 11 25  1  0
 11 26  1  0
 12 27  1  0
 13 28  1  1
M  END
$$$$

     RDKit          3D

 28 29  0  0  0  0  0  0  0  0999 V2000
    3.5009    0.5378    0.3123 C   0  0  0  0  0  0  0  0  0  0  0  0
    2.0773    0.8524   -0.0624 C   0  0  0  0  0  0  0  0  0  0  0  0
    1.1814   -0.1476    0.4069 N   0  0  0  0  0  0  0  0  0  0  0  0
    1.5139   -1.4512    0.1350 N   0  0  0  0  0  0  0  0  0  0  0  0
    0.3030   -2.2375    0.0978 C   0  0  0  0  0  0  0  0  0  0  0  0
   -0.7477   -1.3034    0.6088 C   0  0  2  0  0  0  0  0  0  0  0  0
   -2.0608   -1.4031   -0.0216 C   0  0  0  0  0  0  0  0  0  0  0  0
   -2.5706   -2.4788   -0.3677 O   0  0  0  0  0  0  0  0  0  0  0  0
   -2.7527   -0.1879   -0.2306 N   0  0  0  0  0  0  0  0  0  0  0  0
   -2.2803    1.0751    0.3177 C   0  0  2  0  0  0  0  0  0  0  0  0
   -2.6669    2.1495   -0.5905 N   0  0  0  0  0  0  0  0  0  0  0  0
   -0.8726    1.1423    0.5450 N   0  0  0  0  0  0  0  0  0  0  0  0
   -0.1786    0.0176    0.0341 C   0  0  1  0  0  0  0  0  0  0  0  0
    4.1158    1.4280    0.0913 H   0  0  0  0  0  0  0  0  0  0  0  0
    3.8414   -0.2375   -0.4273 H   0  0  0  0  0  0  0  0  0  0  0  0
    3.6071    0.1454    1.3318 H   0  0  0  0  0  0  0  0  0  0  0  0
    2.0297    1.0877   -1.1241 H   0  0  0  0  0  0  0  0  0  0  0  0
    1.8130    1.8034    0.4950 H   0  0  0  0  0  0  0  0  0  0  0  0
    2.1361   -1.6004   -0.6598 H   0  0  0  0  0  0  0  0  0  0  0  0
    0.0687   -2.6014   -0.9262 H   0  0  0  0  0  0  0  0  0  0  0  0
    0.4531   -3.1182    0.7642 H   0  0  0  0  0  0  0  0  0  0  0  0
   -0.7686   -1.2405    1.7108 H   0  0  0  0  0  0  0  0  0  0  0  0
   -3.6273   -0.1596   -0.7866 H   0  0  0  0  0  0  0  0  0  0  0  0
   -2.7871    1.2121    1.3130 H   0  0  0  0  0  0  0  0  0  0  0  0
   -2.4970    1.8136   -1.5530 H   0  0  0  0  0  0  0  0  0  0  0  0
   -2.0536    3.0012   -0.4404 H   0  0  0  0  0  0  0  0  0  0  0  0
   -0.4538    2.0029    0.1067 H   0  0  0  0  0  0  0  0  0  0  0  0
   -0.3239   -0.1019   -1.0802 H   0  0  0  0  0  0  0  0  0  0  0  0
  1  2  1  0
  2  3  1  0
  3  4  1  0
  4  5  1  0
  5  6  1  0
  6  7  1  0
  7  8  2  0
  7  9  1  0
  9 10  1  0
 10 11  1  0
 10 12  1  0
 12 13  1  0
 13  3  1  0
 13  6  1  0
  1 14  1  0
  1 15  1  0
  1 16  1  0
  2 17  1  0
  2 18  1  0
  4 19  1  0
  5 20  1  0
  5 21  1  0
  6 22  1  1
  9 23  1  0
 10 24  1  1
 11 25  1  0
 11 26  1  0
 12 27  1  0
 13 28  1  6
M  END
$$$$

     RDKit          3D

 28 29  0  0  0  0  0  0  0  0999 V2000
    2.8917   -1.0226    0.2993 C   0  0  0  0  0  0  0  0  0  0  0  0
    2.2634    0.3239    0.1820 C   0  0  0  0  0  0  0  0  0  0  0  0
    1.0571    0.5488    0.8674 N   0  0  0  0  0  0  0  0  0  0  0  0
    0.7854    1.9231    0.8307 N   0  0  0  0  0  0  0  0  0  0  0  0
   -0.1048    2.1376   -0.2924 C   0  0  0  0  0  0  0  0  0  0  0  0
   -0.4747    0.7720   -0.7779 C   0  0  2  0  0  0  0  0  0  0  0  0
   -1.8894    0.5312   -1.0150 C   0  0  0  0  0  0  0  0  0  0  0  0
   -2.6385    1.4100   -1.4521 O   0  0  0  0  0  0  0  0  0  0  0  0
   -2.3859   -0.7566   -0.7277 N   0  0  0  0  0  0  0  0  0  0  0  0
   -1.7660   -1.6532    0.2315 C   0  0  2  0  0  0  0  0  0  0  0  0
   -2.4075   -1.3873    1.5062 N   0  0  0  0  0  0  0  0  0  0  0  0
   -0.3091   -1.4180    0.3205 N   0  0  0  0  0  0  0  0  0  0  0  0
   -0.1337   -0.0427    0.4819 C   0  0  1  0  0  0  0  0  0  0  0  0
    3.8316   -0.9753   -0.3313 H   0  0  0  0  0  0  0  0  0  0  0  0
    2.3401   -1.8740   -0.0746 H   0  0  0  0  0  0  0  0  0  0  0  0
    3.2723   -1.1434    1.3360 H   0  0  0  0  0  0  0  0  0  0  0  0
    3.0206    1.0735    0.5629 H   0  0  0  0  0  0  0  0  0  0  0  0
    2.2233    0.5516   -0.9117 H   0  0  0  0  0  0  0  0  0  0  0  0
    1.6127    2.5199    0.8540 H   0  0  0  0  0  0  0  0  0  0  0  0
    0.4848    2.6582   -1.0694 H   0  0  0  0  0  0  0  0  0  0  0  0
   -1.0126    2.7028   -0.0148 H   0  0  0  0  0  0  0  0  0  0  0  0
    0.0963    0.4262   -1.6459 H   0  0  0  0  0  0  0  0  0  0  0  0
   -3.2483   -1.1308   -1.2104 H   0  0  0  0  0  0  0  0  0  0  0  0
   -1.9463   -2.7065   -0.0874 H   0  0  0  0  0  0  0  0  0  0  0  0
   -1.7870   -1.4698    2.3281 H   0  0  0  0  0  0  0  0  0  0  0  0
   -2.8935   -0.4432    1.5109 H   0  0  0  0  0  0  0  0  0  0  0  0
    0.0469   -1.8643   -0.5577 H   0  0  0  0  0  0  0  0  0  0  0  0
   -0.9287    0.3088    1.2152 H   0  0  0  0  0  0  0  0  0  0  0  0
  1  2  1  0
  2  3  1  0
  3  4  1  0
  4  5  1  0
  5  6  1  0
  6  7  1  0
  7  8  2  0
  7  9  1  0
  9 10  1  0
 10 11  1  0
 10 12  1  0
 12 13  1  0
 13  3  1  0
 13  6  1  0
  1 14  1  0
  1 15  1  0
  1 16  1  0
  2 17  1  0
  2 18  1  0
  4 19  1  0
  5 20  1  0
  5 21  1  0
  6 22  1  6
  9 23  1  0
 10 24  1  6
 11 25  1  0
 11 26  1  0
 12 27  1  0
 13 28  1  1
M  END
$$$$
