
     RDKit          3D

 28 30  0  0  0  0  0  0  0  0999 V2000
    1.9255    2.1316    0.6628 N   0  0  0  0  0  0  0  0  0  0  0  0
    1.2024    1.2065   -0.2248 C   0  0  2  0  0  0  0  0  0  0  0  0
   -0.1783    1.6133   -0.2158 N   0  0  0  0  0  0  0  0  0  0  0  0
   -1.0787    0.5951   -0.6856 C   0  0  2  0  0  0  0  0  0  0  0  0
   -2.4330    1.0459   -0.4522 N   0  0  0  0  0  0  0  0  0  0  0  0
   -3.0571    0.0924    0.4317 C   0  0  0  0  0  0  0  0  0  0  0  0
   -1.9072   -0.3344    1.2443 N   0  0  0  0  0  0  0  0  0  0  0  0
   -0.9438   -0.6230    0.1778 C   0  0  2  0  0  0  0  0  0  0  0  0
    0.4200   -0.8967    0.6718 C   0  0  1  0  0  0  0  0  0  0  0  0
    0.7900   -2.2543    0.2468 N   0  0  0  0  0  0  0  0  0  0  0  0
    2.1351   -2.2238   -0.0552 N   0  0  0  0  0  0  0  0  0  0  0  0
    2.3586   -0.8750   -0.6021 C   0  0  0  0  0  0  0  0  0  0  0  0
    1.4635   -0.1018    0.1886 N   0  0  0  0  0  0  0  0  0  0  0  0
    2.2148    2.9658    0.1429 H   0  0  0  0  0  0  0  0  0  0  0  0
    1.2851    2.3621    1.4607 H   0  0  0  0  0  0  0  0  0  0  0  0
    1.6281    1.3899   -1.2420 H   0  0  0  0  0  0  0  0  0  0  0  0
   -0.3090    2.4564   -0.8238 H   0  0  0  0  0  0  0  0  0  0  0  0
   -0.8573    0.3980   -1.7410 H   0  0  0  0  0  0  0  0  0  0  0  0
   -2.9387    1.1618   -1.3491 H   0  0  0  0  0  0  0  0  0  0  0  0
   -3.8299    0.5139    1.0794 H   0  0  0  0  0  0  0  0  0  0  0  0
   -3.4100   -0.7535   -0.2028 H   0  0  0  0  0  0  0  0  0  0  0  0
   -2.1508   -1.1692    1.7958 H   0  0  0  0  0  0  0  0  0  0  0  0
   -1.3935   -1.4772   -0.3993 H   0  0  0  0  0  0  0  0  0  0  0  0
    0.4510   -0.9085    1.7915 H   0  0  0  0  0  0  0  0  0  0  0  0
    0.2737   -2.5028   -0.6359 H   0  0  0  0  0  0  0  0  0  0  0  0
    2.7342   -2.3421    0.7957 H   0  0  0  0  0  0  0  0  0  0  0  0
    3.4227   -0.6257   -0.3760 H   0  0  0  0  0  0  0  0  0  0  0  0
    2.1826   -0.8448   -1.6845 H   0  0  0  0  0  0  0  0  0  0  0  0
  1  2  1  0
  2  3  1  0
  3  4  1  0
  4  5  1  0
  5  6  1  0
  6  7  1  0
  7  8  1  0
  8  9  1  0
  9 10  1  0
 10 11  1  0
 11 12  1  0
 12 13  1  0
 13  2  1  0
  8  4  1  0
 13  9  1  0
  1 14  1  0
  1 15  1  0
  2 16  1  6
  3 17  1  0
  4 18  1  6
  5 19  1  0
  6 20  1  0
  6 21  1  0
  7 22  1  0
  8 23  1  6
  9 24  1  1
 10 25  1  0
 11 26  1  0
 12 27  1  0
 12 28  1  0
M  END
$$$$

     RDKit          3D

 28 30  0  0  0  0  0  0  0  0999 V2000
   -0.8917    2.4366   -0.9032 N   0  0  0  0  0  0  0  0  0  0  0  0
   -1.0093    1.2731   -0.0061 C   0  0  2  0  0  0  0  0  0  0  0  0
   -0.0094    1.2903    0.9700 N   0  0  0  0  0  0  0  0  0  0  0  0
    1.0942    0.4439    0.8702 C   0  0  2  0  0  0  0  0  0  0  0  0
    2.3029    1.0911    0.3322 N   0  0  0  0  0  0  0  0  0  0  0  0
    3.0655   -0.1169   -0.0314 C   0  0  0  0  0  0  0  0  0  0  0  0
    2.0478   -0.7644   -0.8766 N   0  0  0  0  0  0  0  0  0  0  0  0
    0.9378   -0.8083    0.0886 C   0  0  2  0  0  0  0  0  0  0  0  0
   -0.3737   -0.9954   -0.5659 C   0  0  1  0  0  0  0  0  0  0  0  0
   -1.2039   -1.8610    0.2341 N   0  0  0  0  0  0  0  0  0  0  0  0
   -2.4283   -1.7933   -0.4717 N   0  0  0  0  0  0  0  0  0  0  0  0
   -2.5286   -0.4065   -0.8000 C   0  0  0  0  0  0  0  0  0  0  0  0
   -1.1567    0.1260   -0.8127 N   0  0  0  0  0  0  0  0  0  0  0  0
   -1.4582    3.2336   -0.5823 H   0  0  0  0  0  0  0  0  0  0  0  0
    0.0808    2.7549   -1.0019 H   0  0  0  0  0  0  0  0  0  0  0  0
   -2.0024    1.4414    0.5141 H   0  0  0  0  0  0  0  0  0  0  0  0
   -0.3398    1.4813    1.9535 H   0  0  0  0  0  0  0  0  0  0  0  0
    1.4019    0.1440    1.9178 H   0  0  0  0  0  0  0  0  0  0  0  0
    2.1219    1.5736   -0.5592 H   0  0  0  0  0  0  0  0  0  0  0  0
    3.1684   -0.7233    0.8686 H   0  0  0  0  0  0  0  0  0  0  0  0
    3.9768    0.1113   -0.5726 H   0  0  0  0  0  0  0  0  0  0  0  0
    2.3476   -1.6994   -1.1694 H   0  0  0  0  0  0  0  0  0  0  0  0
    1.1503   -1.7348    0.6989 H   0  0  0  0  0  0  0  0  0  0  0  0
   -0.1971   -1.5475   -1.5357 H   0  0  0  0  0  0  0  0  0  0  0  0
   -0.8177   -2.8146    0.2496 H   0  0  0  0  0  0  0  0  0  0  0  0
   -3.1612   -2.0595    0.2526 H   0  0  0  0  0  0  0  0  0  0  0  0
   -3.0621   -0.1886   -1.7344 H   0  0  0  0  0  0  0  0  0  0  0  0
   -3.0556    0.1125    0.0533 H   0  0  0  0  0  0  0  0  0  0  0  0
  1  2  1  0
  2  3  1  0
  3  4  1  0
  4  5  1  0
  5  6  1  0
  6  7  1  0
  7  8  1  0
  8  9  1  0
  9 10  1  0
 10 11  1  0
 11 12  1  0
 12 13  1  0
 13  2  1  0
  8  4  1  0
 13  9  1  0
  1 14  1  0
  1 15  1  0
  2 16  1  1
  3 17  1  0
  4 18  1  1
  5 19  1  0
  6 20  1  0
  6 21  1  0
  7 22  1  0
  8 23  1  1
  9 24  1  6
 10 25  1  0
 11 26  1  0
 12 27  1  0
 12 28  1  0
M  END
$$$$

     RDKit          3D

 28 30  0  0  0  0  0  0  0  0999 V2000
   -1.9483    2.3375    0.2431 N   0  0  0  0  0  0  0  0  0  0  0  0
   -1.0113    1.2597    0.5072 C   0  0  2  0  0  0  0  0  0  0  0  0
    0.3271    1.7481    0.1645 N   0  0  0  0  0  0  0  0  0  0  0  0
    1.3120    0.7854    0.5524 C   0  0  2  0  0  0  0  0  0  0  0  0
    2.4775    0.8589   -0.3089 N   0  0  0  0  0  0  0  0  0  0  0  0
    2.9247   -0.4868   -0.4975 C   0  0  0  0  0  0  0  0  0  0  0  0
    1.9996   -1.3694    0.1485 N   0  0  0  0  0  0  0  0  0  0  0  0
    0.8299   -0.6393    0.4930 C   0  0  2  0  0  0  0  0  0  0  0  0
   -0.3135   -0.8301   -0.4655 C   0  0  1  0  0  0  0  0  0  0  0  0
   -0.9647   -2.0857   -0.2551 N   0  0  0  0  0  0  0  0  0  0  0  0
   -2.2825   -1.8458    0.0858 N   0  0  0  0  0  0  0  0  0  0  0  0
   -2.5662   -0.4604   -0.1362 C   0  0  0  0  0  0  0  0  0  0  0  0
   -1.3088    0.1831   -0.3891 N   0  0  0  0  0  0  0  0  0  0  0  0
   -1.5537    2.9353   -0.5042 H   0  0  0  0  0  0  0  0  0  0  0  0
   -2.2394    2.8442    1.0969 H   0  0  0  0  0  0  0  0  0  0  0  0
   -1.0287    0.9562    1.5740 H   0  0  0  0  0  0  0  0  0  0  0  0
    0.3326    1.8552   -0.8863 H   0  0  0  0  0  0  0  0  0  0  0  0
    1.6676    1.0456    1.5798 H   0  0  0  0  0  0  0  0  0  0  0  0
    3.2472    1.4287    0.0966 H   0  0  0  0  0  0  0  0  0  0  0  0
    3.0501   -0.6904   -1.5858 H   0  0  0  0  0  0  0  0  0  0  0  0
    3.9309   -0.6562   -0.0481 H   0  0  0  0  0  0  0  0  0  0  0  0
    1.8517   -2.2676   -0.3270 H   0  0  0  0  0  0  0  0  0  0  0  0
    0.5047   -0.9761    1.5138 H   0  0  0  0  0  0  0  0  0  0  0  0
    0.1196   -0.7991   -1.5030 H   0  0  0  0  0  0  0  0  0  0  0  0
   -0.5176   -2.6348    0.5249 H   0  0  0  0  0  0  0  0  0  0  0  0
   -2.5083   -2.1226    1.0758 H   0  0  0  0  0  0  0  0  0  0  0  0
   -3.1557    0.0050    0.6737 H   0  0  0  0  0  0  0  0  0  0  0  0
   -3.1765   -0.3786   -1.0675 H   0  0  0  0  0  0  0  0  0  0  0  0
  1  2  1  0
  2  3  1  0
  3  4  1  0
  4  5  1  0
  5  6  1  0
  6  7  1  0
  7  8  1  0
  8  9  1  0
  9 10  1  0
 10 11  1  0
 11 12  1  0
 12 13  1  0
 13  2  1  0
  8  4  1  0
 13  9  1  0
  1 14  1  0
  1 15  1  0
  2 16  1  1
  3 17  1  0
  4 18  1  1
  5 19  1  0
  6 20  1  0
  6 21  1  0
  7 22  1  0
  8 23  1  1
  9 24  1  6
 10 25  1  0
 11 26  1  0
 12 27  1  0
 12 28  1  0
M  END
$$$$

     RDKit          3D

 28 30  0  0  0  0  0  0  0  0999 V2000
   -2.3865    0.9353    1.3113 N   0  0  0  0  0  0  0  0  0  0  0  0
   -1.1381    0.5463    0.7511 C   0  0  2  0  0  0  0  0  0  0  0  0
   -0.2457    1.6557    0.4715 N   0  0  0  0  0  0  0  0  0  0  0  0
    1.0740    1.1280    0.3508 C   0  0  2  0  0  0  0  0  0  0  0  0
    1.8970    1.9793   -0.5246 N   0  0  0  0  0  0  0  0  0  0  0  0
    2.9890    1.0352   -0.8114 C   0  0  0  0  0  0  0  0  0  0  0  0
    2.2073   -0.1293   -1.2340 N   0  0  0  0  0  0  0  0  0  0  0  0
    1.1985   -0.2395   -0.1665 C   0  0  2  0  0  0  0  0  0  0  0  0
   -0.0200   -0.9394   -0.6072 C   0  0  1  0  0  0  0  0  0  0  0  0
   -0.3488   -2.0646    0.2845 N   0  0  0  0  0  0  0  0  0  0  0  0
   -1.6870   -2.3618   -0.0198 N   0  0  0  0  0  0  0  0  0  0  0  0
   -2.2799   -1.1481   -0.5273 C   0  0  0  0  0  0  0  0  0  0  0  0
   -1.2426   -0.1687   -0.4936 N   0  0  0  0  0  0  0  0  0  0  0  0
   -2.2000    1.5963    2.0985 H   0  0  0  0  0  0  0  0  0  0  0  0
   -2.8011    0.0753    1.7816 H   0  0  0  0  0  0  0  0  0  0  0  0
   -0.6068   -0.0843    1.5221 H   0  0  0  0  0  0  0  0  0  0  0  0
   -0.3184    2.4273    1.1421 H   0  0  0  0  0  0  0  0  0  0  0  0
    1.5594    1.2359    1.3661 H   0  0  0  0  0  0  0  0  0  0  0  0
    1.4249    2.1352   -1.4430 H   0  0  0  0  0  0  0  0  0  0  0  0
    3.6553    1.3947   -1.5909 H   0  0  0  0  0  0  0  0  0  0  0  0
    3.4883    0.8289    0.1500 H   0  0  0  0  0  0  0  0  0  0  0  0
    1.7870    0.0530   -2.1494 H   0  0  0  0  0  0  0  0  0  0  0  0
    1.7046   -0.8835    0.6136 H   0  0  0  0  0  0  0  0  0  0  0  0
    0.0450   -1.3933   -1.6270 H   0  0  0  0  0  0  0  0  0  0  0  0
    0.2171   -2.8911    0.0786 H   0  0  0  0  0  0  0  0  0  0  0  0
   -2.1701   -2.5968    0.8699 H   0  0  0  0  0  0  0  0  0  0  0  0
   -3.2065   -0.8552    0.0070 H   0  0  0  0  0  0  0  0  0  0  0  0
   -2.5958   -1.2706   -1.6041 H   0  0  0  0  0  0  0  0  0  0  0  0
  1  2  1  0
  2  3  1  0
  3  4  1  0
  4  5  1  0
  5  6  1  0
  6  7  1  0
  7  8  1  0
  8  9  1  0
  9 10  1  0
 10 11  1  0
 11 12  1  0
 12 13  1  0
 13  2  1  0
  8  4  1  0
 13  9  1  0
  1 14  1  0
  1 15  1  0
  2 16  1  1
  3 17  1  0
  4 18  1  1
  5 19  1  0
  6 20  1  0
  6 21  1  0
  7 22  1  0
  8 23  1  1
  9 24  1  6
 10 25  1  0
 11 26  1  0
 12 27  1  0
 12 28  1  0
M  END
$$$$

     RDKit          3D

 28 30  0  0  0  0  0  0  0  0999 V2000
    1.9429    2.0976    0.3229 N   0  0  0  0  0  0  0  0  0  0  0  0
    0.9405    1.4013   -0.4532 C   0  0  2  0  0  0  0  0  0  0  0  0
   -0.3288    1.5433    0.1988 N   0  0  0  0  0  0  0  0  0  0  0  0
   -1.3792    0.7462   -0.3666 C   0  0  2  0  0  0  0  0  0  0  0  0
   -2.4564    0.6834    0.6017 N   0  0  0  0  0  0  0  0  0  0  0  0
   -2.9504   -0.6551    0.6252 C   0  0  0  0  0  0  0  0  0  0  0  0
   -1.9662   -1.5181    0.0572 N   0  0  0  0  0  0  0  0  0  0  0  0
   -0.9601   -0.7173   -0.5371 C   0  0  2  0  0  0  0  0  0  0  0  0
    0.3942   -0.8191    0.1103 C   0  0  1  0  0  0  0  0  0  0  0  0
    1.0427   -2.0748   -0.0648 N   0  0  0  0  0  0  0  0  0  0  0  0
    2.3991   -1.7535    0.0355 N   0  0  0  0  0  0  0  0  0  0  0  0
    2.5480   -0.4034   -0.5034 C   0  0  0  0  0  0  0  0  0  0  0  0
    1.2377    0.0515   -0.7259 N   0  0  0  0  0  0  0  0  0  0  0  0
    1.5218    2.6254    1.1223 H   0  0  0  0  0  0  0  0  0  0  0  0
    2.4438    2.8200   -0.2513 H   0  0  0  0  0  0  0  0  0  0  0  0
    0.8522    1.9449   -1.4400 H   0  0  0  0  0  0  0  0  0  0  0  0
   -0.2952    1.5706    1.2210 H   0  0  0  0  0  0  0  0  0  0  0  0
   -1.7508    1.1848   -1.2959 H   0  0  0  0  0  0  0  0  0  0  0  0
   -3.2252    1.3159    0.3349 H   0  0  0  0  0  0  0  0  0  0  0  0
   -3.1068   -0.9824    1.6869 H   0  0  0  0  0  0  0  0  0  0  0  0
   -3.9240   -0.7872    0.1009 H   0  0  0  0  0  0  0  0  0  0  0  0
   -2.3585   -2.1583   -0.6923 H   0  0  0  0  0  0  0  0  0  0  0  0
   -0.8178   -0.8911   -1.6367 H   0  0  0  0  0  0  0  0  0  0  0  0
    0.3593   -0.4565    1.1563 H   0  0  0  0  0  0  0  0  0  0  0  0
    0.8274   -2.6584    0.7988 H   0  0  0  0  0  0  0  0  0  0  0  0
    2.7597   -1.7873    0.9992 H   0  0  0  0  0  0  0  0  0  0  0  0
    3.1990    0.2279    0.1002 H   0  0  0  0  0  0  0  0  0  0  0  0
    3.0512   -0.5503   -1.5049 H   0  0  0  0  0  0  0  0  0  0  0  0
  1  2  1  0
  2  3  1  0
  3  4  1  0
  4  5  1  0
  5  6  1  0
  6  7  1  0
  7  8  1  0
  8  9  1  0
  9 10  1  0
 10 11  1  0
 11 12  1  0
 12 13  1  0
 13  2  1  0
  8  4  1  0
 13  9  1  0
  1 14  1  0
  1 15  1  0
  2 16  1  6
  3 17  1  0
  4 18  1  6
  5 19  1  0
  6 20  1  0
  6 21  1  0
  7 22  1  0
  8 23  1  6
  9 24  1  1
 10 25  1  0
 11 26  1  0
 12 27  1  0
 12 28  1  0
M  END
$$$$

     RDKit          3D

 28 30  0  0  0  0  0  0  0  0999 V2000
   -2.4461   -1.6755   -0.3652 N   0  0  0  0  0  0  0  0  0  0  0  0
   -1.2358   -0.9242   -0.3802 C   0  0  2  0  0  0  0  0  0  0  0  0
   -0.0594   -1.7390   -0.0359 N   0  0  0  0  0  0  0  0  0  0  0  0
    1.0645   -1.0084   -0.5722 C   0  0  2  0  0  0  0  0  0  0  0  0
    2.3394   -1.5635   -0.1751 N   0  0  0  0  0  0  0  0  0  0  0  0
    3.1318   -0.4395    0.3134 C   0  0  0  0  0  0  0  0  0  0  0  0
    2.1520    0.5575    0.7089 N   0  0  0  0  0  0  0  0  0  0  0  0
    1.0761    0.4324   -0.2769 C   0  0  2  0  0  0  0  0  0  0  0  0
   -0.1452    1.0414    0.2598 C   0  0  1  0  0  0  0  0  0  0  0  0
   -0.7433    2.0295   -0.6507 N   0  0  0  0  0  0  0  0  0  0  0  0
   -2.0698    2.1802   -0.2185 N   0  0  0  0  0  0  0  0  0  0  0  0
   -2.4492    0.9394    0.4123 C   0  0  0  0  0  0  0  0  0  0  0  0
   -1.2286    0.1713    0.5529 N   0  0  0  0  0  0  0  0  0  0  0  0
   -2.6558   -2.1377    0.5323 H   0  0  0  0  0  0  0  0  0  0  0  0
   -2.5570   -2.2546   -1.2052 H   0  0  0  0  0  0  0  0  0  0  0  0
   -1.0948   -0.5137   -1.4049 H   0  0  0  0  0  0  0  0  0  0  0  0
   -0.1183   -2.6700   -0.4868 H   0  0  0  0  0  0  0  0  0  0  0  0
    1.0085   -1.1396   -1.6923 H   0  0  0  0  0  0  0  0  0  0  0  0
    2.8620   -2.0101   -0.9459 H   0  0  0  0  0  0  0  0  0  0  0  0
    3.6882   -0.7626    1.2194 H   0  0  0  0  0  0  0  0  0  0  0  0
    3.7979   -0.0539   -0.4826 H   0  0  0  0  0  0  0  0  0  0  0  0
    2.6100    1.4849    0.5998 H   0  0  0  0  0  0  0  0  0  0  0  0
    1.4315    1.0187   -1.1711 H   0  0  0  0  0  0  0  0  0  0  0  0
    0.0734    1.6316    1.1980 H   0  0  0  0  0  0  0  0  0  0  0  0
   -0.2168    2.9421   -0.5874 H   0  0  0  0  0  0  0  0  0  0  0  0
   -2.1296    2.9636    0.4622 H   0  0  0  0  0  0  0  0  0  0  0  0
   -3.1633    0.4110   -0.2445 H   0  0  0  0  0  0  0  0  0  0  0  0
   -2.9222    1.0887    1.4133 H   0  0  0  0  0  0  0  0  0  0  0  0
  1  2  1  0
  2  3  1  0
  3  4  1  0
  4  5  1  0
  5  6  1  0
  6  7  1  0
  7  8  1  0
  8  9  1  0
  9 10  1  0
 10 11  1  0
 11 12  1  0
 12 13  1  0
 13  2  1  0
  8  4  1  0
 13  9  1  0
  1 14  1  0
  1 15  1  0
  2 16  1  6
  3 17  1  0
  4 18  1  6
  5 19  1  0
  6 20  1  0
  6 21  1  0
  7 22  1  0
  8 23  1  6
  9 24  1  1
 10 25  1  0
 11 26  1  0
 12 27  1  0
 12 28  1  0
M  END
$$$$

     RDKit          3D

 28 30  0  0  0  0  0  0  0  0999 V2000
   -1.2793    2.5276   -0.7943 N   0  0  0  0  0  0  0  0  0  0  0  0
   -0.8286    1.3802    0.0119 C   0  0  2  0  0  0  0  0  0  0  0  0
    0.5815    1.5084    0.1656 N   0  0  0  0  0  0  0  0  0  0  0  0
    1.2044    0.3579    0.7072 C   0  0  2  0  0  0  0  0  0  0  0  0
    2.6484    0.4709    0.4796 N   0  0  0  0  0  0  0  0  0  0  0  0
    2.9948   -0.5847   -0.4339 C   0  0  0  0  0  0  0  0  0  0  0  0
    1.7885   -1.2374   -0.8384 N   0  0  0  0  0  0  0  0  0  0  0  0
    0.7661   -0.9372    0.1348 C   0  0  2  0  0  0  0  0  0  0  0  0
   -0.5625   -0.9728   -0.4905 C   0  0  1  0  0  0  0  0  0  0  0  0
   -1.4234   -1.8885    0.2757 N   0  0  0  0  0  0  0  0  0  0  0  0
   -2.7261   -1.5154    0.0089 N   0  0  0  0  0  0  0  0  0  0  0  0
   -2.6423   -0.0821   -0.0963 C   0  0  0  0  0  0  0  0  0  0  0  0
   -1.2991    0.2079   -0.5959 N   0  0  0  0  0  0  0  0  0  0  0  0
   -1.2269    2.1895   -1.7948 H   0  0  0  0  0  0  0  0  0  0  0  0
   -0.6813    3.3528   -0.6434 H   0  0  0  0  0  0  0  0  0  0  0  0
   -1.3435    1.5140    1.0001 H   0  0  0  0  0  0  0  0  0  0  0  0
    1.0776    1.9733   -0.6107 H   0  0  0  0  0  0  0  0  0  0  0  0
    1.0875    0.3918    1.8219 H   0  0  0  0  0  0  0  0  0  0  0  0
    2.9141    1.3958    0.0960 H   0  0  0  0  0  0  0  0  0  0  0  0
    3.7206   -1.2972   -0.0072 H   0  0  0  0  0  0  0  0  0  0  0  0
    3.4623   -0.1579   -1.3653 H   0  0  0  0  0  0  0  0  0  0  0  0
    1.8813   -2.2402   -1.0609 H   0  0  0  0  0  0  0  0  0  0  0  0
    0.8641   -1.7156    0.9478 H   0  0  0  0  0  0  0  0  0  0  0  0
   -0.4951   -1.4529   -1.5112 H   0  0  0  0  0  0  0  0  0  0  0  0
   -1.1876   -1.8234    1.2908 H   0  0  0  0  0  0  0  0  0  0  0  0
   -3.1361   -1.9820   -0.8178 H   0  0  0  0  0  0  0  0  0  0  0  0
   -2.7590    0.3337    0.9168 H   0  0  0  0  0  0  0  0  0  0  0  0
   -3.4006    0.2836   -0.8105 H   0  0  0  0  0  0  0  0  0  0  0  0
  1  2  1  0
  2  3  1  0
  3  4  1  0
  4  5  1  0
  5  6  1  0
  6  7  1  0
  7  8  1  0
  8  9  1  0
  9 10  1  0
 10 11  1  0
 11 12  1  0
 12 13  1  0
 13  2  1  0
  8  4  1  0
 13  9  1  0
  1 14  1  0
  1 15  1  0
  2 16  1  1
  3 17  1  0
  4 18  1  1
  5 19  1  0
  6 20  1  0
  6 21  1  0
  7 22  1  0
  8 23  1  1
  9 24  1  6
 10 25  1  0
 11 26  1  0
 12 27  1  0
 12 28  1  0
M  END
$$$$

     RDKit          3D

 28 30  0  0  0  0  0  0  0  0999 V2000
   -1.5932   -2.0292    0.1939 N   0  0  0  0  0  0  0  0  0  0  0  0
   -0.8683   -1.2269   -0.8061 C   0  0  2  0  0  0  0  0  0  0  0  0
    0.5087   -1.4743   -0.6295 N   0  0  0  0  0  0  0  0  0  0  0  0
    1.3999   -0.3913   -0.6320 C   0  0  2  0  0  0  0  0  0  0  0  0
    2.4466   -0.6616    0.3689 N   0  0  0  0  0  0  0  0  0  0  0  0
    2.9473    0.6090    0.7892 C   0  0  0  0  0  0  0  0  0  0  0  0
    1.7990    1.4752    0.7823 N   0  0  0  0  0  0  0  0  0  0  0  0
    0.8635    0.9214   -0.1431 C   0  0  2  0  0  0  0  0  0  0  0  0
   -0.5085    0.7126    0.3926 C   0  0  1  0  0  0  0  0  0  0  0  0
   -1.2608    1.9011    0.6326 N   0  0  0  0  0  0  0  0  0  0  0  0
   -2.5896    1.3965    0.5983 N   0  0  0  0  0  0  0  0  0  0  0  0
   -2.6037    0.4178   -0.4830 C   0  0  0  0  0  0  0  0  0  0  0  0
   -1.2473    0.1372   -0.7482 N   0  0  0  0  0  0  0  0  0  0  0  0
   -1.5534   -3.0259   -0.1241 H   0  0  0  0  0  0  0  0  0  0  0  0
   -1.0382   -2.0181    1.0985 H   0  0  0  0  0  0  0  0  0  0  0  0
   -1.2170   -1.6356   -1.7973 H   0  0  0  0  0  0  0  0  0  0  0  0
    0.8364   -2.1823   -1.3532 H   0  0  0  0  0  0  0  0  0  0  0  0
    1.9540   -0.2430   -1.5872 H   0  0  0  0  0  0  0  0  0  0  0  0
    3.1481   -1.3294    0.0299 H   0  0  0  0  0  0  0  0  0  0  0  0
    3.7315    0.9203    0.0649 H   0  0  0  0  0  0  0  0  0  0  0  0
    3.3340    0.5845    1.8283 H   0  0  0  0  0  0  0  0  0  0  0  0
    1.3980    1.6758    1.7027 H   0  0  0  0  0  0  0  0  0  0  0  0
    0.7677    1.5953   -1.0439 H   0  0  0  0  0  0  0  0  0  0  0  0
   -0.5275   -0.0053    1.2326 H   0  0  0  0  0  0  0  0  0  0  0  0
   -1.1813    2.5145   -0.1983 H   0  0  0  0  0  0  0  0  0  0  0  0
   -2.6650    0.8207    1.4869 H   0  0  0  0  0  0  0  0  0  0  0  0
   -3.2573   -0.4336   -0.2845 H   0  0  0  0  0  0  0  0  0  0  0  0
   -3.0238    0.9750   -1.3712 H   0  0  0  0  0  0  0  0  0  0  0  0
  1  2  1  0
  2  3  1  0
  3  4  1  0
  4  5  1  0
  5  6  1  0
  6  7  1  0
  7  8  1  0
  8  9  1  0
  9 10  1  0
 10 11  1  0
 11 12  1  0
 12 13  1  0
 13  2  1  0
  8  4  1  0
 13  9  1  0
  1 14  1  0
  1 15  1  0
  2 16  1  6
  3 17  1  0
  4 18  1  6
  5 19  1  0
  6 20  1  0
  6 21  1  0
  7 22  1  0
  8 23  1  6
  9 24  1  1
 10 25  1  0
 11 26  1  0
 12 27  1  0
 12 28  1  0
M  END
$$$$
